
---------- Begin Simulation Statistics ----------
simSeconds                                   0.007150                       # Number of seconds simulated (Second)
simTicks                                   7149961548                       # Number of ticks simulated (Tick)
finalTick                                  7149961548                       # Number of ticks from beginning of simulation (restored from checkpoints and never reset) (Tick)
simFreq                                  1000000000000                       # The number of ticks per simulated second ((Tick/Second))
hostSeconds                                    116.40                       # Real time elapsed on the host (Second)
hostTickRate                                 61426313                       # The number of ticks simulated per host second (ticks/s) ((Tick/Second))
hostMemory                                    2371964                       # Number of bytes of host memory used (Byte)
simInsts                                     33954546                       # Number of instructions simulated (Count)
simOps                                       33954560                       # Number of ops (including micro ops) simulated (Count)
hostInstRate                                   291708                       # Simulator instruction rate (inst/s) ((Count/Second))
hostOpRate                                     291708                       # Simulator op (including micro ops) rate (op/s) ((Count/Second))
board.cache_hierarchy.clusters.dptw_cache.blockedCycles::no_mshrs            0                       # number of cycles access was blocked (Cycle)
board.cache_hierarchy.clusters.dptw_cache.blockedCycles::no_targets            0                       # number of cycles access was blocked (Cycle)
board.cache_hierarchy.clusters.dptw_cache.blockedCauses::no_mshrs            0                       # number of times access was blocked (Count)
board.cache_hierarchy.clusters.dptw_cache.blockedCauses::no_targets            0                       # number of times access was blocked (Count)
board.cache_hierarchy.clusters.dptw_cache.avgBlocked::no_mshrs          nan                       # average number of cycles each access was blocked ((Cycle/Count))
board.cache_hierarchy.clusters.dptw_cache.avgBlocked::no_targets          nan                       # average number of cycles each access was blocked ((Cycle/Count))
board.cache_hierarchy.clusters.dptw_cache.replacements            0                       # number of replacements (Count)
board.cache_hierarchy.clusters.dptw_cache.power_state.pwrStateResidencyTicks::UNDEFINED   7149961548                       # Cumulative time (in ticks) in various power states (Tick)
board.cache_hierarchy.clusters.dptw_cache.tags.tagsInUse            0                       # Average ticks per tags in use ((Tick/Count))
board.cache_hierarchy.clusters.dptw_cache.tags.totalRefs            0                       # Total number of references to valid blocks. (Count)
board.cache_hierarchy.clusters.dptw_cache.tags.sampledRefs            0                       # Sample count of references to valid blocks. (Count)
board.cache_hierarchy.clusters.dptw_cache.tags.avgRefs          nan                       # Average number of references to valid blocks. ((Count/Count))
board.cache_hierarchy.clusters.dptw_cache.tags.warmupTick            0                       # The tick when the warmup percentage was hit. (Tick)
board.cache_hierarchy.clusters.dptw_cache.tags.tagAccesses            0                       # Number of tag accesses (Count)
board.cache_hierarchy.clusters.dptw_cache.tags.dataAccesses            0                       # Number of data accesses (Count)
board.cache_hierarchy.clusters.dptw_cache.tags.power_state.pwrStateResidencyTicks::UNDEFINED   7149961548                       # Cumulative time (in ticks) in various power states (Tick)
board.cache_hierarchy.clusters.iptw_cache.blockedCycles::no_mshrs            0                       # number of cycles access was blocked (Cycle)
board.cache_hierarchy.clusters.iptw_cache.blockedCycles::no_targets            0                       # number of cycles access was blocked (Cycle)
board.cache_hierarchy.clusters.iptw_cache.blockedCauses::no_mshrs            0                       # number of times access was blocked (Count)
board.cache_hierarchy.clusters.iptw_cache.blockedCauses::no_targets            0                       # number of times access was blocked (Count)
board.cache_hierarchy.clusters.iptw_cache.avgBlocked::no_mshrs          nan                       # average number of cycles each access was blocked ((Cycle/Count))
board.cache_hierarchy.clusters.iptw_cache.avgBlocked::no_targets          nan                       # average number of cycles each access was blocked ((Cycle/Count))
board.cache_hierarchy.clusters.iptw_cache.replacements            0                       # number of replacements (Count)
board.cache_hierarchy.clusters.iptw_cache.power_state.pwrStateResidencyTicks::UNDEFINED   7149961548                       # Cumulative time (in ticks) in various power states (Tick)
board.cache_hierarchy.clusters.iptw_cache.tags.tagsInUse            0                       # Average ticks per tags in use ((Tick/Count))
board.cache_hierarchy.clusters.iptw_cache.tags.totalRefs            0                       # Total number of references to valid blocks. (Count)
board.cache_hierarchy.clusters.iptw_cache.tags.sampledRefs            0                       # Sample count of references to valid blocks. (Count)
board.cache_hierarchy.clusters.iptw_cache.tags.avgRefs          nan                       # Average number of references to valid blocks. ((Count/Count))
board.cache_hierarchy.clusters.iptw_cache.tags.warmupTick            0                       # The tick when the warmup percentage was hit. (Tick)
board.cache_hierarchy.clusters.iptw_cache.tags.tagAccesses            0                       # Number of tag accesses (Count)
board.cache_hierarchy.clusters.iptw_cache.tags.dataAccesses            0                       # Number of data accesses (Count)
board.cache_hierarchy.clusters.iptw_cache.tags.power_state.pwrStateResidencyTicks::UNDEFINED   7149961548                       # Cumulative time (in ticks) in various power states (Tick)
board.cache_hierarchy.clusters.l1dcache.demandHits::processor.cores.core.data     12419546                       # number of demand (read+write) hits (Count)
board.cache_hierarchy.clusters.l1dcache.demandHits::total     12419546                       # number of demand (read+write) hits (Count)
board.cache_hierarchy.clusters.l1dcache.overallHits::processor.cores.core.data     12419546                       # number of overall hits (Count)
board.cache_hierarchy.clusters.l1dcache.overallHits::total     12419546                       # number of overall hits (Count)
board.cache_hierarchy.clusters.l1dcache.demandMisses::processor.cores.core.data        60941                       # number of demand (read+write) misses (Count)
board.cache_hierarchy.clusters.l1dcache.demandMisses::total        60941                       # number of demand (read+write) misses (Count)
board.cache_hierarchy.clusters.l1dcache.overallMisses::processor.cores.core.data        60941                       # number of overall misses (Count)
board.cache_hierarchy.clusters.l1dcache.overallMisses::total        60941                       # number of overall misses (Count)
board.cache_hierarchy.clusters.l1dcache.demandMissLatency::processor.cores.core.data    417052197                       # number of demand (read+write) miss ticks (Tick)
board.cache_hierarchy.clusters.l1dcache.demandMissLatency::total    417052197                       # number of demand (read+write) miss ticks (Tick)
board.cache_hierarchy.clusters.l1dcache.overallMissLatency::processor.cores.core.data    417052197                       # number of overall miss ticks (Tick)
board.cache_hierarchy.clusters.l1dcache.overallMissLatency::total    417052197                       # number of overall miss ticks (Tick)
board.cache_hierarchy.clusters.l1dcache.demandAccesses::processor.cores.core.data     12480487                       # number of demand (read+write) accesses (Count)
board.cache_hierarchy.clusters.l1dcache.demandAccesses::total     12480487                       # number of demand (read+write) accesses (Count)
board.cache_hierarchy.clusters.l1dcache.overallAccesses::processor.cores.core.data     12480487                       # number of overall (read+write) accesses (Count)
board.cache_hierarchy.clusters.l1dcache.overallAccesses::total     12480487                       # number of overall (read+write) accesses (Count)
board.cache_hierarchy.clusters.l1dcache.demandMissRate::processor.cores.core.data     0.004883                       # miss rate for demand accesses (Ratio)
board.cache_hierarchy.clusters.l1dcache.demandMissRate::total     0.004883                       # miss rate for demand accesses (Ratio)
board.cache_hierarchy.clusters.l1dcache.overallMissRate::processor.cores.core.data     0.004883                       # miss rate for overall accesses (Ratio)
board.cache_hierarchy.clusters.l1dcache.overallMissRate::total     0.004883                       # miss rate for overall accesses (Ratio)
board.cache_hierarchy.clusters.l1dcache.demandAvgMissLatency::processor.cores.core.data  6843.540424                       # average overall miss latency in ticks ((Tick/Count))
board.cache_hierarchy.clusters.l1dcache.demandAvgMissLatency::total  6843.540424                       # average overall miss latency in ticks ((Tick/Count))
board.cache_hierarchy.clusters.l1dcache.overallAvgMissLatency::processor.cores.core.data  6843.540424                       # average overall miss latency ((Tick/Count))
board.cache_hierarchy.clusters.l1dcache.overallAvgMissLatency::total  6843.540424                       # average overall miss latency ((Tick/Count))
board.cache_hierarchy.clusters.l1dcache.blockedCycles::no_mshrs            0                       # number of cycles access was blocked (Cycle)
board.cache_hierarchy.clusters.l1dcache.blockedCycles::no_targets          488                       # number of cycles access was blocked (Cycle)
board.cache_hierarchy.clusters.l1dcache.blockedCauses::no_mshrs            0                       # number of times access was blocked (Count)
board.cache_hierarchy.clusters.l1dcache.blockedCauses::no_targets            2                       # number of times access was blocked (Count)
board.cache_hierarchy.clusters.l1dcache.avgBlocked::no_mshrs          nan                       # average number of cycles each access was blocked ((Cycle/Count))
board.cache_hierarchy.clusters.l1dcache.avgBlocked::no_targets          244                       # average number of cycles each access was blocked ((Cycle/Count))
board.cache_hierarchy.clusters.l1dcache.writebacks::writebacks        62039                       # number of writebacks (Count)
board.cache_hierarchy.clusters.l1dcache.writebacks::total        62039                       # number of writebacks (Count)
board.cache_hierarchy.clusters.l1dcache.demandMshrHits::processor.cores.core.data         1191                       # number of demand (read+write) MSHR hits (Count)
board.cache_hierarchy.clusters.l1dcache.demandMshrHits::total         1191                       # number of demand (read+write) MSHR hits (Count)
board.cache_hierarchy.clusters.l1dcache.overallMshrHits::processor.cores.core.data         1191                       # number of overall MSHR hits (Count)
board.cache_hierarchy.clusters.l1dcache.overallMshrHits::total         1191                       # number of overall MSHR hits (Count)
board.cache_hierarchy.clusters.l1dcache.demandMshrMisses::processor.cores.core.data        59750                       # number of demand (read+write) MSHR misses (Count)
board.cache_hierarchy.clusters.l1dcache.demandMshrMisses::total        59750                       # number of demand (read+write) MSHR misses (Count)
board.cache_hierarchy.clusters.l1dcache.overallMshrMisses::cache_hierarchy.clusters.l1dcache.prefetcher         3530                       # number of overall MSHR misses (Count)
board.cache_hierarchy.clusters.l1dcache.overallMshrMisses::processor.cores.core.data        59750                       # number of overall MSHR misses (Count)
board.cache_hierarchy.clusters.l1dcache.overallMshrMisses::total        63280                       # number of overall MSHR misses (Count)
board.cache_hierarchy.clusters.l1dcache.demandMshrMissLatency::processor.cores.core.data    289746963                       # number of demand (read+write) MSHR miss ticks (Tick)
board.cache_hierarchy.clusters.l1dcache.demandMshrMissLatency::total    289746963                       # number of demand (read+write) MSHR miss ticks (Tick)
board.cache_hierarchy.clusters.l1dcache.overallMshrMissLatency::cache_hierarchy.clusters.l1dcache.prefetcher     56430164                       # number of overall MSHR miss ticks (Tick)
board.cache_hierarchy.clusters.l1dcache.overallMshrMissLatency::processor.cores.core.data    289746963                       # number of overall MSHR miss ticks (Tick)
board.cache_hierarchy.clusters.l1dcache.overallMshrMissLatency::total    346177127                       # number of overall MSHR miss ticks (Tick)
board.cache_hierarchy.clusters.l1dcache.demandMshrMissRate::processor.cores.core.data     0.004787                       # mshr miss ratio for demand accesses (Ratio)
board.cache_hierarchy.clusters.l1dcache.demandMshrMissRate::total     0.004787                       # mshr miss ratio for demand accesses (Ratio)
board.cache_hierarchy.clusters.l1dcache.overallMshrMissRate::cache_hierarchy.clusters.l1dcache.prefetcher          inf                       # mshr miss ratio for overall accesses (Ratio)
board.cache_hierarchy.clusters.l1dcache.overallMshrMissRate::processor.cores.core.data     0.004787                       # mshr miss ratio for overall accesses (Ratio)
board.cache_hierarchy.clusters.l1dcache.overallMshrMissRate::total     0.005070                       # mshr miss ratio for overall accesses (Ratio)
board.cache_hierarchy.clusters.l1dcache.demandAvgMshrMissLatency::processor.cores.core.data  4849.321556                       # average overall mshr miss latency ((Tick/Count))
board.cache_hierarchy.clusters.l1dcache.demandAvgMshrMissLatency::total  4849.321556                       # average overall mshr miss latency ((Tick/Count))
board.cache_hierarchy.clusters.l1dcache.overallAvgMshrMissLatency::cache_hierarchy.clusters.l1dcache.prefetcher 15985.882153                       # average overall mshr miss latency ((Tick/Count))
board.cache_hierarchy.clusters.l1dcache.overallAvgMshrMissLatency::processor.cores.core.data  4849.321556                       # average overall mshr miss latency ((Tick/Count))
board.cache_hierarchy.clusters.l1dcache.overallAvgMshrMissLatency::total  5470.561425                       # average overall mshr miss latency ((Tick/Count))
board.cache_hierarchy.clusters.l1dcache.replacements        62769                       # number of replacements (Count)
board.cache_hierarchy.clusters.l1dcache.HardPFReq.mshrMisses::cache_hierarchy.clusters.l1dcache.prefetcher         3530                       # number of HardPFReq MSHR misses (Count)
board.cache_hierarchy.clusters.l1dcache.HardPFReq.mshrMisses::total         3530                       # number of HardPFReq MSHR misses (Count)
board.cache_hierarchy.clusters.l1dcache.HardPFReq.mshrMissLatency::cache_hierarchy.clusters.l1dcache.prefetcher     56430164                       # number of HardPFReq MSHR miss ticks (Tick)
board.cache_hierarchy.clusters.l1dcache.HardPFReq.mshrMissLatency::total     56430164                       # number of HardPFReq MSHR miss ticks (Tick)
board.cache_hierarchy.clusters.l1dcache.HardPFReq.mshrMissRate::cache_hierarchy.clusters.l1dcache.prefetcher          inf                       # mshr miss rate for HardPFReq accesses (Ratio)
board.cache_hierarchy.clusters.l1dcache.HardPFReq.mshrMissRate::total          inf                       # mshr miss rate for HardPFReq accesses (Ratio)
board.cache_hierarchy.clusters.l1dcache.HardPFReq.avgMshrMissLatency::cache_hierarchy.clusters.l1dcache.prefetcher 15985.882153                       # average HardPFReq mshr miss latency ((Tick/Count))
board.cache_hierarchy.clusters.l1dcache.HardPFReq.avgMshrMissLatency::total 15985.882153                       # average HardPFReq mshr miss latency ((Tick/Count))
board.cache_hierarchy.clusters.l1dcache.LoadLockedReq.hits::processor.cores.core.data           11                       # number of LoadLockedReq hits (Count)
board.cache_hierarchy.clusters.l1dcache.LoadLockedReq.hits::total           11                       # number of LoadLockedReq hits (Count)
board.cache_hierarchy.clusters.l1dcache.LoadLockedReq.misses::processor.cores.core.data            7                       # number of LoadLockedReq misses (Count)
board.cache_hierarchy.clusters.l1dcache.LoadLockedReq.misses::total            7                       # number of LoadLockedReq misses (Count)
board.cache_hierarchy.clusters.l1dcache.LoadLockedReq.missLatency::processor.cores.core.data       311688                       # number of LoadLockedReq miss ticks (Tick)
board.cache_hierarchy.clusters.l1dcache.LoadLockedReq.missLatency::total       311688                       # number of LoadLockedReq miss ticks (Tick)
board.cache_hierarchy.clusters.l1dcache.LoadLockedReq.accesses::processor.cores.core.data           18                       # number of LoadLockedReq accesses(hits+misses) (Count)
board.cache_hierarchy.clusters.l1dcache.LoadLockedReq.accesses::total           18                       # number of LoadLockedReq accesses(hits+misses) (Count)
board.cache_hierarchy.clusters.l1dcache.LoadLockedReq.missRate::processor.cores.core.data     0.388889                       # miss rate for LoadLockedReq accesses (Ratio)
board.cache_hierarchy.clusters.l1dcache.LoadLockedReq.missRate::total     0.388889                       # miss rate for LoadLockedReq accesses (Ratio)
board.cache_hierarchy.clusters.l1dcache.LoadLockedReq.avgMissLatency::processor.cores.core.data 44526.857143                       # average LoadLockedReq miss latency ((Tick/Count))
board.cache_hierarchy.clusters.l1dcache.LoadLockedReq.avgMissLatency::total 44526.857143                       # average LoadLockedReq miss latency ((Tick/Count))
board.cache_hierarchy.clusters.l1dcache.LoadLockedReq.mshrHits::processor.cores.core.data            5                       # number of LoadLockedReq MSHR hits (Count)
board.cache_hierarchy.clusters.l1dcache.LoadLockedReq.mshrHits::total            5                       # number of LoadLockedReq MSHR hits (Count)
board.cache_hierarchy.clusters.l1dcache.LoadLockedReq.mshrMisses::processor.cores.core.data            2                       # number of LoadLockedReq MSHR misses (Count)
board.cache_hierarchy.clusters.l1dcache.LoadLockedReq.mshrMisses::total            2                       # number of LoadLockedReq MSHR misses (Count)
board.cache_hierarchy.clusters.l1dcache.LoadLockedReq.mshrMissLatency::processor.cores.core.data       102897                       # number of LoadLockedReq MSHR miss ticks (Tick)
board.cache_hierarchy.clusters.l1dcache.LoadLockedReq.mshrMissLatency::total       102897                       # number of LoadLockedReq MSHR miss ticks (Tick)
board.cache_hierarchy.clusters.l1dcache.LoadLockedReq.mshrMissRate::processor.cores.core.data     0.111111                       # mshr miss rate for LoadLockedReq accesses (Ratio)
board.cache_hierarchy.clusters.l1dcache.LoadLockedReq.mshrMissRate::total     0.111111                       # mshr miss rate for LoadLockedReq accesses (Ratio)
board.cache_hierarchy.clusters.l1dcache.LoadLockedReq.avgMshrMissLatency::processor.cores.core.data 51448.500000                       # average LoadLockedReq mshr miss latency ((Tick/Count))
board.cache_hierarchy.clusters.l1dcache.LoadLockedReq.avgMshrMissLatency::total 51448.500000                       # average LoadLockedReq mshr miss latency ((Tick/Count))
board.cache_hierarchy.clusters.l1dcache.ReadReq.hits::processor.cores.core.data     10328803                       # number of ReadReq hits (Count)
board.cache_hierarchy.clusters.l1dcache.ReadReq.hits::total     10328803                       # number of ReadReq hits (Count)
board.cache_hierarchy.clusters.l1dcache.ReadReq.misses::processor.cores.core.data        59467                       # number of ReadReq misses (Count)
board.cache_hierarchy.clusters.l1dcache.ReadReq.misses::total        59467                       # number of ReadReq misses (Count)
board.cache_hierarchy.clusters.l1dcache.ReadReq.missLatency::processor.cores.core.data    320898114                       # number of ReadReq miss ticks (Tick)
board.cache_hierarchy.clusters.l1dcache.ReadReq.missLatency::total    320898114                       # number of ReadReq miss ticks (Tick)
board.cache_hierarchy.clusters.l1dcache.ReadReq.accesses::processor.cores.core.data     10388270                       # number of ReadReq accesses(hits+misses) (Count)
board.cache_hierarchy.clusters.l1dcache.ReadReq.accesses::total     10388270                       # number of ReadReq accesses(hits+misses) (Count)
board.cache_hierarchy.clusters.l1dcache.ReadReq.missRate::processor.cores.core.data     0.005724                       # miss rate for ReadReq accesses (Ratio)
board.cache_hierarchy.clusters.l1dcache.ReadReq.missRate::total     0.005724                       # miss rate for ReadReq accesses (Ratio)
board.cache_hierarchy.clusters.l1dcache.ReadReq.avgMissLatency::processor.cores.core.data  5396.238485                       # average ReadReq miss latency ((Tick/Count))
board.cache_hierarchy.clusters.l1dcache.ReadReq.avgMissLatency::total  5396.238485                       # average ReadReq miss latency ((Tick/Count))
board.cache_hierarchy.clusters.l1dcache.ReadReq.mshrHits::processor.cores.core.data          363                       # number of ReadReq MSHR hits (Count)
board.cache_hierarchy.clusters.l1dcache.ReadReq.mshrHits::total          363                       # number of ReadReq MSHR hits (Count)
board.cache_hierarchy.clusters.l1dcache.ReadReq.mshrMisses::processor.cores.core.data        59104                       # number of ReadReq MSHR misses (Count)
board.cache_hierarchy.clusters.l1dcache.ReadReq.mshrMisses::total        59104                       # number of ReadReq MSHR misses (Count)
board.cache_hierarchy.clusters.l1dcache.ReadReq.mshrMissLatency::processor.cores.core.data    271638090                       # number of ReadReq MSHR miss ticks (Tick)
board.cache_hierarchy.clusters.l1dcache.ReadReq.mshrMissLatency::total    271638090                       # number of ReadReq MSHR miss ticks (Tick)
board.cache_hierarchy.clusters.l1dcache.ReadReq.mshrMissRate::processor.cores.core.data     0.005689                       # mshr miss rate for ReadReq accesses (Ratio)
board.cache_hierarchy.clusters.l1dcache.ReadReq.mshrMissRate::total     0.005689                       # mshr miss rate for ReadReq accesses (Ratio)
board.cache_hierarchy.clusters.l1dcache.ReadReq.avgMshrMissLatency::processor.cores.core.data  4595.934116                       # average ReadReq mshr miss latency ((Tick/Count))
board.cache_hierarchy.clusters.l1dcache.ReadReq.avgMshrMissLatency::total  4595.934116                       # average ReadReq mshr miss latency ((Tick/Count))
board.cache_hierarchy.clusters.l1dcache.StoreCondReq.hits::processor.cores.core.data           14                       # number of StoreCondReq hits (Count)
board.cache_hierarchy.clusters.l1dcache.StoreCondReq.hits::total           14                       # number of StoreCondReq hits (Count)
board.cache_hierarchy.clusters.l1dcache.StoreCondReq.accesses::processor.cores.core.data           14                       # number of StoreCondReq accesses(hits+misses) (Count)
board.cache_hierarchy.clusters.l1dcache.StoreCondReq.accesses::total           14                       # number of StoreCondReq accesses(hits+misses) (Count)
board.cache_hierarchy.clusters.l1dcache.SwapReq.hits::processor.cores.core.data           25                       # number of SwapReq hits (Count)
board.cache_hierarchy.clusters.l1dcache.SwapReq.hits::total           25                       # number of SwapReq hits (Count)
board.cache_hierarchy.clusters.l1dcache.SwapReq.accesses::processor.cores.core.data           25                       # number of SwapReq accesses(hits+misses) (Count)
board.cache_hierarchy.clusters.l1dcache.SwapReq.accesses::total           25                       # number of SwapReq accesses(hits+misses) (Count)
board.cache_hierarchy.clusters.l1dcache.WriteReq.hits::processor.cores.core.data      2090743                       # number of WriteReq hits (Count)
board.cache_hierarchy.clusters.l1dcache.WriteReq.hits::total      2090743                       # number of WriteReq hits (Count)
board.cache_hierarchy.clusters.l1dcache.WriteReq.misses::processor.cores.core.data         1474                       # number of WriteReq misses (Count)
board.cache_hierarchy.clusters.l1dcache.WriteReq.misses::total         1474                       # number of WriteReq misses (Count)
board.cache_hierarchy.clusters.l1dcache.WriteReq.missLatency::processor.cores.core.data     96154083                       # number of WriteReq miss ticks (Tick)
board.cache_hierarchy.clusters.l1dcache.WriteReq.missLatency::total     96154083                       # number of WriteReq miss ticks (Tick)
board.cache_hierarchy.clusters.l1dcache.WriteReq.accesses::processor.cores.core.data      2092217                       # number of WriteReq accesses(hits+misses) (Count)
board.cache_hierarchy.clusters.l1dcache.WriteReq.accesses::total      2092217                       # number of WriteReq accesses(hits+misses) (Count)
board.cache_hierarchy.clusters.l1dcache.WriteReq.missRate::processor.cores.core.data     0.000705                       # miss rate for WriteReq accesses (Ratio)
board.cache_hierarchy.clusters.l1dcache.WriteReq.missRate::total     0.000705                       # miss rate for WriteReq accesses (Ratio)
board.cache_hierarchy.clusters.l1dcache.WriteReq.avgMissLatency::processor.cores.core.data 65233.434871                       # average WriteReq miss latency ((Tick/Count))
board.cache_hierarchy.clusters.l1dcache.WriteReq.avgMissLatency::total 65233.434871                       # average WriteReq miss latency ((Tick/Count))
board.cache_hierarchy.clusters.l1dcache.WriteReq.mshrHits::processor.cores.core.data          828                       # number of WriteReq MSHR hits (Count)
board.cache_hierarchy.clusters.l1dcache.WriteReq.mshrHits::total          828                       # number of WriteReq MSHR hits (Count)
board.cache_hierarchy.clusters.l1dcache.WriteReq.mshrMisses::processor.cores.core.data          646                       # number of WriteReq MSHR misses (Count)
board.cache_hierarchy.clusters.l1dcache.WriteReq.mshrMisses::total          646                       # number of WriteReq MSHR misses (Count)
board.cache_hierarchy.clusters.l1dcache.WriteReq.mshrMissLatency::processor.cores.core.data     18108873                       # number of WriteReq MSHR miss ticks (Tick)
board.cache_hierarchy.clusters.l1dcache.WriteReq.mshrMissLatency::total     18108873                       # number of WriteReq MSHR miss ticks (Tick)
board.cache_hierarchy.clusters.l1dcache.WriteReq.mshrMissRate::processor.cores.core.data     0.000309                       # mshr miss rate for WriteReq accesses (Ratio)
board.cache_hierarchy.clusters.l1dcache.WriteReq.mshrMissRate::total     0.000309                       # mshr miss rate for WriteReq accesses (Ratio)
board.cache_hierarchy.clusters.l1dcache.WriteReq.avgMshrMissLatency::processor.cores.core.data 28032.311146                       # average WriteReq mshr miss latency ((Tick/Count))
board.cache_hierarchy.clusters.l1dcache.WriteReq.avgMshrMissLatency::total 28032.311146                       # average WriteReq mshr miss latency ((Tick/Count))
board.cache_hierarchy.clusters.l1dcache.power_state.pwrStateResidencyTicks::UNDEFINED   7149961548                       # Cumulative time (in ticks) in various power states (Tick)
board.cache_hierarchy.clusters.l1dcache.prefetcher.demandMshrMisses        59750                       # demands not covered by prefetchs (Count)
board.cache_hierarchy.clusters.l1dcache.prefetcher.pfIssued        13774                       # number of hwpf issued (Count)
board.cache_hierarchy.clusters.l1dcache.prefetcher.pfUnused         1006                       # number of HardPF blocks evicted w/o reference (Count)
board.cache_hierarchy.clusters.l1dcache.prefetcher.pfUseful         2461                       # number of useful prefetch (Count)
board.cache_hierarchy.clusters.l1dcache.prefetcher.pfUsefulButMiss            0                       # number of hit on prefetch but cache block is not in an usable state (Count)
board.cache_hierarchy.clusters.l1dcache.prefetcher.accuracy     0.178670                       # accuracy of the prefetcher (Count)
board.cache_hierarchy.clusters.l1dcache.prefetcher.coverage     0.039559                       # coverage brought by this prefetcher (Count)
board.cache_hierarchy.clusters.l1dcache.prefetcher.pfHitInCache         8496                       # number of prefetches hitting in cache (Count)
board.cache_hierarchy.clusters.l1dcache.prefetcher.pfHitInMSHR         1748                       # number of prefetches hitting in a MSHR (Count)
board.cache_hierarchy.clusters.l1dcache.prefetcher.pfHitInWB            0                       # number of prefetches hit in the Write Buffer (Count)
board.cache_hierarchy.clusters.l1dcache.prefetcher.pfLate        10244                       # number of late prefetches (hitting in cache, MSHR or WB) (Count)
board.cache_hierarchy.clusters.l1dcache.prefetcher.pfIdentified        14444                       # number of prefetch candidates identified (Count)
board.cache_hierarchy.clusters.l1dcache.prefetcher.pfBufferHit          519                       # number of redundant prefetches already in prefetch queue (Count)
board.cache_hierarchy.clusters.l1dcache.prefetcher.pfInCache            0                       # number of redundant prefetches already in cache/mshr dropped (Count)
board.cache_hierarchy.clusters.l1dcache.prefetcher.pfRemovedDemand            6                       # number of prefetches dropped due to a demand for the same address (Count)
board.cache_hierarchy.clusters.l1dcache.prefetcher.pfRemovedFull            0                       # number of prefetches dropped due to prefetch queue size (Count)
board.cache_hierarchy.clusters.l1dcache.prefetcher.pfSpanPage          864                       # number of prefetches that crossed the page (Count)
board.cache_hierarchy.clusters.l1dcache.prefetcher.pfUsefulSpanPage          420                       # number of prefetches that is useful and crossed the page (Count)
board.cache_hierarchy.clusters.l1dcache.prefetcher.power_state.pwrStateResidencyTicks::UNDEFINED   7149961548                       # Cumulative time (in ticks) in various power states (Tick)
board.cache_hierarchy.clusters.l1dcache.tags.tagsInUse   510.377938                       # Average ticks per tags in use ((Tick/Count))
board.cache_hierarchy.clusters.l1dcache.tags.totalRefs     12482877                       # Total number of references to valid blocks. (Count)
board.cache_hierarchy.clusters.l1dcache.tags.sampledRefs        63281                       # Sample count of references to valid blocks. (Count)
board.cache_hierarchy.clusters.l1dcache.tags.avgRefs   197.261058                       # Average number of references to valid blocks. ((Count/Count))
board.cache_hierarchy.clusters.l1dcache.tags.warmupTick       253746                       # The tick when the warmup percentage was hit. (Tick)
board.cache_hierarchy.clusters.l1dcache.tags.occupancies::cache_hierarchy.clusters.l1dcache.prefetcher    22.632455                       # Average occupied blocks per tick, per requestor ((Count/Tick))
board.cache_hierarchy.clusters.l1dcache.tags.occupancies::processor.cores.core.data   487.745483                       # Average occupied blocks per tick, per requestor ((Count/Tick))
board.cache_hierarchy.clusters.l1dcache.tags.avgOccs::cache_hierarchy.clusters.l1dcache.prefetcher     0.044204                       # Average percentage of cache occupancy ((Ratio/Tick))
board.cache_hierarchy.clusters.l1dcache.tags.avgOccs::processor.cores.core.data     0.952628                       # Average percentage of cache occupancy ((Ratio/Tick))
board.cache_hierarchy.clusters.l1dcache.tags.avgOccs::total     0.996832                       # Average percentage of cache occupancy ((Ratio/Tick))
board.cache_hierarchy.clusters.l1dcache.tags.occupanciesTaskId::1022          425                       # Occupied blocks per task id (Count)
board.cache_hierarchy.clusters.l1dcache.tags.occupanciesTaskId::1024           87                       # Occupied blocks per task id (Count)
board.cache_hierarchy.clusters.l1dcache.tags.ageTaskId_1022::0           28                       # Occupied blocks per task id, per block age (Count)
board.cache_hierarchy.clusters.l1dcache.tags.ageTaskId_1022::1          397                       # Occupied blocks per task id, per block age (Count)
board.cache_hierarchy.clusters.l1dcache.tags.ageTaskId_1024::0           78                       # Occupied blocks per task id, per block age (Count)
board.cache_hierarchy.clusters.l1dcache.tags.ageTaskId_1024::1            7                       # Occupied blocks per task id, per block age (Count)
board.cache_hierarchy.clusters.l1dcache.tags.ageTaskId_1024::2            1                       # Occupied blocks per task id, per block age (Count)
board.cache_hierarchy.clusters.l1dcache.tags.ageTaskId_1024::3            1                       # Occupied blocks per task id, per block age (Count)
board.cache_hierarchy.clusters.l1dcache.tags.ratioOccsTaskId::1022     0.830078                       # Ratio of occupied blocks and all blocks, per task id (Ratio)
board.cache_hierarchy.clusters.l1dcache.tags.ratioOccsTaskId::1024     0.169922                       # Ratio of occupied blocks and all blocks, per task id (Ratio)
board.cache_hierarchy.clusters.l1dcache.tags.tagAccesses     49985457                       # Number of tag accesses (Count)
board.cache_hierarchy.clusters.l1dcache.tags.dataAccesses     49985457                       # Number of data accesses (Count)
board.cache_hierarchy.clusters.l1dcache.tags.power_state.pwrStateResidencyTicks::UNDEFINED   7149961548                       # Cumulative time (in ticks) in various power states (Tick)
board.cache_hierarchy.clusters.l1icache.demandHits::processor.cores.core.inst      2188065                       # number of demand (read+write) hits (Count)
board.cache_hierarchy.clusters.l1icache.demandHits::total      2188065                       # number of demand (read+write) hits (Count)
board.cache_hierarchy.clusters.l1icache.overallHits::processor.cores.core.inst      2188065                       # number of overall hits (Count)
board.cache_hierarchy.clusters.l1icache.overallHits::total      2188065                       # number of overall hits (Count)
board.cache_hierarchy.clusters.l1icache.demandMisses::processor.cores.core.inst          652                       # number of demand (read+write) misses (Count)
board.cache_hierarchy.clusters.l1icache.demandMisses::total          652                       # number of demand (read+write) misses (Count)
board.cache_hierarchy.clusters.l1icache.overallMisses::processor.cores.core.inst          652                       # number of overall misses (Count)
board.cache_hierarchy.clusters.l1icache.overallMisses::total          652                       # number of overall misses (Count)
board.cache_hierarchy.clusters.l1icache.demandMissLatency::processor.cores.core.inst     64602333                       # number of demand (read+write) miss ticks (Tick)
board.cache_hierarchy.clusters.l1icache.demandMissLatency::total     64602333                       # number of demand (read+write) miss ticks (Tick)
board.cache_hierarchy.clusters.l1icache.overallMissLatency::processor.cores.core.inst     64602333                       # number of overall miss ticks (Tick)
board.cache_hierarchy.clusters.l1icache.overallMissLatency::total     64602333                       # number of overall miss ticks (Tick)
board.cache_hierarchy.clusters.l1icache.demandAccesses::processor.cores.core.inst      2188717                       # number of demand (read+write) accesses (Count)
board.cache_hierarchy.clusters.l1icache.demandAccesses::total      2188717                       # number of demand (read+write) accesses (Count)
board.cache_hierarchy.clusters.l1icache.overallAccesses::processor.cores.core.inst      2188717                       # number of overall (read+write) accesses (Count)
board.cache_hierarchy.clusters.l1icache.overallAccesses::total      2188717                       # number of overall (read+write) accesses (Count)
board.cache_hierarchy.clusters.l1icache.demandMissRate::processor.cores.core.inst     0.000298                       # miss rate for demand accesses (Ratio)
board.cache_hierarchy.clusters.l1icache.demandMissRate::total     0.000298                       # miss rate for demand accesses (Ratio)
board.cache_hierarchy.clusters.l1icache.overallMissRate::processor.cores.core.inst     0.000298                       # miss rate for overall accesses (Ratio)
board.cache_hierarchy.clusters.l1icache.overallMissRate::total     0.000298                       # miss rate for overall accesses (Ratio)
board.cache_hierarchy.clusters.l1icache.demandAvgMissLatency::processor.cores.core.inst 99083.332822                       # average overall miss latency in ticks ((Tick/Count))
board.cache_hierarchy.clusters.l1icache.demandAvgMissLatency::total 99083.332822                       # average overall miss latency in ticks ((Tick/Count))
board.cache_hierarchy.clusters.l1icache.overallAvgMissLatency::processor.cores.core.inst 99083.332822                       # average overall miss latency ((Tick/Count))
board.cache_hierarchy.clusters.l1icache.overallAvgMissLatency::total 99083.332822                       # average overall miss latency ((Tick/Count))
board.cache_hierarchy.clusters.l1icache.blockedCycles::no_mshrs            0                       # number of cycles access was blocked (Cycle)
board.cache_hierarchy.clusters.l1icache.blockedCycles::no_targets            0                       # number of cycles access was blocked (Cycle)
board.cache_hierarchy.clusters.l1icache.blockedCauses::no_mshrs            0                       # number of times access was blocked (Count)
board.cache_hierarchy.clusters.l1icache.blockedCauses::no_targets            0                       # number of times access was blocked (Count)
board.cache_hierarchy.clusters.l1icache.avgBlocked::no_mshrs          nan                       # average number of cycles each access was blocked ((Cycle/Count))
board.cache_hierarchy.clusters.l1icache.avgBlocked::no_targets          nan                       # average number of cycles each access was blocked ((Cycle/Count))
board.cache_hierarchy.clusters.l1icache.writebacks::writebacks           40                       # number of writebacks (Count)
board.cache_hierarchy.clusters.l1icache.writebacks::total           40                       # number of writebacks (Count)
board.cache_hierarchy.clusters.l1icache.demandMshrHits::processor.cores.core.inst          234                       # number of demand (read+write) MSHR hits (Count)
board.cache_hierarchy.clusters.l1icache.demandMshrHits::total          234                       # number of demand (read+write) MSHR hits (Count)
board.cache_hierarchy.clusters.l1icache.overallMshrHits::processor.cores.core.inst          234                       # number of overall MSHR hits (Count)
board.cache_hierarchy.clusters.l1icache.overallMshrHits::total          234                       # number of overall MSHR hits (Count)
board.cache_hierarchy.clusters.l1icache.demandMshrMisses::processor.cores.core.inst          418                       # number of demand (read+write) MSHR misses (Count)
board.cache_hierarchy.clusters.l1icache.demandMshrMisses::total          418                       # number of demand (read+write) MSHR misses (Count)
board.cache_hierarchy.clusters.l1icache.overallMshrMisses::processor.cores.core.inst          418                       # number of overall MSHR misses (Count)
board.cache_hierarchy.clusters.l1icache.overallMshrMisses::total          418                       # number of overall MSHR misses (Count)
board.cache_hierarchy.clusters.l1icache.demandMshrMissLatency::processor.cores.core.inst     45638649                       # number of demand (read+write) MSHR miss ticks (Tick)
board.cache_hierarchy.clusters.l1icache.demandMshrMissLatency::total     45638649                       # number of demand (read+write) MSHR miss ticks (Tick)
board.cache_hierarchy.clusters.l1icache.overallMshrMissLatency::processor.cores.core.inst     45638649                       # number of overall MSHR miss ticks (Tick)
board.cache_hierarchy.clusters.l1icache.overallMshrMissLatency::total     45638649                       # number of overall MSHR miss ticks (Tick)
board.cache_hierarchy.clusters.l1icache.demandMshrMissRate::processor.cores.core.inst     0.000191                       # mshr miss ratio for demand accesses (Ratio)
board.cache_hierarchy.clusters.l1icache.demandMshrMissRate::total     0.000191                       # mshr miss ratio for demand accesses (Ratio)
board.cache_hierarchy.clusters.l1icache.overallMshrMissRate::processor.cores.core.inst     0.000191                       # mshr miss ratio for overall accesses (Ratio)
board.cache_hierarchy.clusters.l1icache.overallMshrMissRate::total     0.000191                       # mshr miss ratio for overall accesses (Ratio)
board.cache_hierarchy.clusters.l1icache.demandAvgMshrMissLatency::processor.cores.core.inst 109183.370813                       # average overall mshr miss latency ((Tick/Count))
board.cache_hierarchy.clusters.l1icache.demandAvgMshrMissLatency::total 109183.370813                       # average overall mshr miss latency ((Tick/Count))
board.cache_hierarchy.clusters.l1icache.overallAvgMshrMissLatency::processor.cores.core.inst 109183.370813                       # average overall mshr miss latency ((Tick/Count))
board.cache_hierarchy.clusters.l1icache.overallAvgMshrMissLatency::total 109183.370813                       # average overall mshr miss latency ((Tick/Count))
board.cache_hierarchy.clusters.l1icache.replacements           40                       # number of replacements (Count)
board.cache_hierarchy.clusters.l1icache.ReadReq.hits::processor.cores.core.inst      2188065                       # number of ReadReq hits (Count)
board.cache_hierarchy.clusters.l1icache.ReadReq.hits::total      2188065                       # number of ReadReq hits (Count)
board.cache_hierarchy.clusters.l1icache.ReadReq.misses::processor.cores.core.inst          652                       # number of ReadReq misses (Count)
board.cache_hierarchy.clusters.l1icache.ReadReq.misses::total          652                       # number of ReadReq misses (Count)
board.cache_hierarchy.clusters.l1icache.ReadReq.missLatency::processor.cores.core.inst     64602333                       # number of ReadReq miss ticks (Tick)
board.cache_hierarchy.clusters.l1icache.ReadReq.missLatency::total     64602333                       # number of ReadReq miss ticks (Tick)
board.cache_hierarchy.clusters.l1icache.ReadReq.accesses::processor.cores.core.inst      2188717                       # number of ReadReq accesses(hits+misses) (Count)
board.cache_hierarchy.clusters.l1icache.ReadReq.accesses::total      2188717                       # number of ReadReq accesses(hits+misses) (Count)
board.cache_hierarchy.clusters.l1icache.ReadReq.missRate::processor.cores.core.inst     0.000298                       # miss rate for ReadReq accesses (Ratio)
board.cache_hierarchy.clusters.l1icache.ReadReq.missRate::total     0.000298                       # miss rate for ReadReq accesses (Ratio)
board.cache_hierarchy.clusters.l1icache.ReadReq.avgMissLatency::processor.cores.core.inst 99083.332822                       # average ReadReq miss latency ((Tick/Count))
board.cache_hierarchy.clusters.l1icache.ReadReq.avgMissLatency::total 99083.332822                       # average ReadReq miss latency ((Tick/Count))
board.cache_hierarchy.clusters.l1icache.ReadReq.mshrHits::processor.cores.core.inst          234                       # number of ReadReq MSHR hits (Count)
board.cache_hierarchy.clusters.l1icache.ReadReq.mshrHits::total          234                       # number of ReadReq MSHR hits (Count)
board.cache_hierarchy.clusters.l1icache.ReadReq.mshrMisses::processor.cores.core.inst          418                       # number of ReadReq MSHR misses (Count)
board.cache_hierarchy.clusters.l1icache.ReadReq.mshrMisses::total          418                       # number of ReadReq MSHR misses (Count)
board.cache_hierarchy.clusters.l1icache.ReadReq.mshrMissLatency::processor.cores.core.inst     45638649                       # number of ReadReq MSHR miss ticks (Tick)
board.cache_hierarchy.clusters.l1icache.ReadReq.mshrMissLatency::total     45638649                       # number of ReadReq MSHR miss ticks (Tick)
board.cache_hierarchy.clusters.l1icache.ReadReq.mshrMissRate::processor.cores.core.inst     0.000191                       # mshr miss rate for ReadReq accesses (Ratio)
board.cache_hierarchy.clusters.l1icache.ReadReq.mshrMissRate::total     0.000191                       # mshr miss rate for ReadReq accesses (Ratio)
board.cache_hierarchy.clusters.l1icache.ReadReq.avgMshrMissLatency::processor.cores.core.inst 109183.370813                       # average ReadReq mshr miss latency ((Tick/Count))
board.cache_hierarchy.clusters.l1icache.ReadReq.avgMshrMissLatency::total 109183.370813                       # average ReadReq mshr miss latency ((Tick/Count))
board.cache_hierarchy.clusters.l1icache.power_state.pwrStateResidencyTicks::UNDEFINED   7149961548                       # Cumulative time (in ticks) in various power states (Tick)
board.cache_hierarchy.clusters.l1icache.prefetcher.demandMshrMisses          418                       # demands not covered by prefetchs (Count)
board.cache_hierarchy.clusters.l1icache.prefetcher.pfIssued            0                       # number of hwpf issued (Count)
board.cache_hierarchy.clusters.l1icache.prefetcher.pfUseful            0                       # number of useful prefetch (Count)
board.cache_hierarchy.clusters.l1icache.prefetcher.pfUsefulButMiss            0                       # number of hit on prefetch but cache block is not in an usable state (Count)
board.cache_hierarchy.clusters.l1icache.prefetcher.accuracy          nan                       # accuracy of the prefetcher (Count)
board.cache_hierarchy.clusters.l1icache.prefetcher.coverage            0                       # coverage brought by this prefetcher (Count)
board.cache_hierarchy.clusters.l1icache.prefetcher.pfHitInCache            0                       # number of prefetches hitting in cache (Count)
board.cache_hierarchy.clusters.l1icache.prefetcher.pfHitInMSHR            0                       # number of prefetches hitting in a MSHR (Count)
board.cache_hierarchy.clusters.l1icache.prefetcher.pfHitInWB            0                       # number of prefetches hit in the Write Buffer (Count)
board.cache_hierarchy.clusters.l1icache.prefetcher.pfLate            0                       # number of late prefetches (hitting in cache, MSHR or WB) (Count)
board.cache_hierarchy.clusters.l1icache.prefetcher.pfIdentified            0                       # number of prefetch candidates identified (Count)
board.cache_hierarchy.clusters.l1icache.prefetcher.pfBufferHit            0                       # number of redundant prefetches already in prefetch queue (Count)
board.cache_hierarchy.clusters.l1icache.prefetcher.pfInCache            0                       # number of redundant prefetches already in cache/mshr dropped (Count)
board.cache_hierarchy.clusters.l1icache.prefetcher.pfRemovedDemand            0                       # number of prefetches dropped due to a demand for the same address (Count)
board.cache_hierarchy.clusters.l1icache.prefetcher.pfRemovedFull            0                       # number of prefetches dropped due to prefetch queue size (Count)
board.cache_hierarchy.clusters.l1icache.prefetcher.pfSpanPage            0                       # number of prefetches that crossed the page (Count)
board.cache_hierarchy.clusters.l1icache.prefetcher.pfUsefulSpanPage            0                       # number of prefetches that is useful and crossed the page (Count)
board.cache_hierarchy.clusters.l1icache.prefetcher.power_state.pwrStateResidencyTicks::UNDEFINED   7149961548                       # Cumulative time (in ticks) in various power states (Tick)
board.cache_hierarchy.clusters.l1icache.tags.tagsInUse   296.533370                       # Average ticks per tags in use ((Tick/Count))
board.cache_hierarchy.clusters.l1icache.tags.totalRefs      2188481                       # Total number of references to valid blocks. (Count)
board.cache_hierarchy.clusters.l1icache.tags.sampledRefs          416                       # Sample count of references to valid blocks. (Count)
board.cache_hierarchy.clusters.l1icache.tags.avgRefs  5260.771635                       # Average number of references to valid blocks. ((Count/Count))
board.cache_hierarchy.clusters.l1icache.tags.warmupTick        90576                       # The tick when the warmup percentage was hit. (Tick)
board.cache_hierarchy.clusters.l1icache.tags.occupancies::processor.cores.core.inst   296.533370                       # Average occupied blocks per tick, per requestor ((Count/Tick))
board.cache_hierarchy.clusters.l1icache.tags.avgOccs::processor.cores.core.inst     0.579167                       # Average percentage of cache occupancy ((Ratio/Tick))
board.cache_hierarchy.clusters.l1icache.tags.avgOccs::total     0.579167                       # Average percentage of cache occupancy ((Ratio/Tick))
board.cache_hierarchy.clusters.l1icache.tags.occupanciesTaskId::1024          376                       # Occupied blocks per task id (Count)
board.cache_hierarchy.clusters.l1icache.tags.ageTaskId_1024::0          108                       # Occupied blocks per task id, per block age (Count)
board.cache_hierarchy.clusters.l1icache.tags.ageTaskId_1024::1            6                       # Occupied blocks per task id, per block age (Count)
board.cache_hierarchy.clusters.l1icache.tags.ageTaskId_1024::3          262                       # Occupied blocks per task id, per block age (Count)
board.cache_hierarchy.clusters.l1icache.tags.ratioOccsTaskId::1024     0.734375                       # Ratio of occupied blocks and all blocks, per task id (Ratio)
board.cache_hierarchy.clusters.l1icache.tags.tagAccesses      8755284                       # Number of tag accesses (Count)
board.cache_hierarchy.clusters.l1icache.tags.dataAccesses      8755284                       # Number of data accesses (Count)
board.cache_hierarchy.clusters.l1icache.tags.power_state.pwrStateResidencyTicks::UNDEFINED   7149961548                       # Cumulative time (in ticks) in various power states (Tick)
board.cache_hierarchy.clusters.l2_xbar.transDist::ReadResp        63051                       # Transaction distribution (Count)
board.cache_hierarchy.clusters.l2_xbar.transDist::WritebackDirty        62039                       # Transaction distribution (Count)
board.cache_hierarchy.clusters.l2_xbar.transDist::WritebackClean           40                       # Transaction distribution (Count)
board.cache_hierarchy.clusters.l2_xbar.transDist::CleanEvict          730                       # Transaction distribution (Count)
board.cache_hierarchy.clusters.l2_xbar.transDist::HardPFReq         2043                       # Transaction distribution (Count)
board.cache_hierarchy.clusters.l2_xbar.transDist::ReadExReq          645                       # Transaction distribution (Count)
board.cache_hierarchy.clusters.l2_xbar.transDist::ReadExResp          645                       # Transaction distribution (Count)
board.cache_hierarchy.clusters.l2_xbar.transDist::ReadSharedReq        63054                       # Transaction distribution (Count)
board.cache_hierarchy.clusters.l2_xbar.transDist::InvalidateReq            1                       # Transaction distribution (Count)
board.cache_hierarchy.clusters.l2_xbar.transDist::InvalidateResp            1                       # Transaction distribution (Count)
board.cache_hierarchy.clusters.l2_xbar.pktCount_board.cache_hierarchy.clusters.l1dcache.mem_side_port::board.cache_hierarchy.clusters.l2cache.cpu_side_port       189332                       # Packet count per connected requestor and responder (Count)
board.cache_hierarchy.clusters.l2_xbar.pktCount_board.cache_hierarchy.clusters.l1icache.mem_side_port::board.cache_hierarchy.clusters.l2cache.cpu_side_port          874                       # Packet count per connected requestor and responder (Count)
board.cache_hierarchy.clusters.l2_xbar.pktCount::total       190206                       # Packet count per connected requestor and responder (Count)
board.cache_hierarchy.clusters.l2_xbar.pktSize_board.cache_hierarchy.clusters.l1dcache.mem_side_port::board.cache_hierarchy.clusters.l2cache.cpu_side_port      8020416                       # Cumulative packet size per connected requestor and responder (Byte)
board.cache_hierarchy.clusters.l2_xbar.pktSize_board.cache_hierarchy.clusters.l1icache.mem_side_port::board.cache_hierarchy.clusters.l2cache.cpu_side_port        29184                       # Cumulative packet size per connected requestor and responder (Byte)
board.cache_hierarchy.clusters.l2_xbar.pktSize::total      8049600                       # Cumulative packet size per connected requestor and responder (Byte)
board.cache_hierarchy.clusters.l2_xbar.snoops         2043                       # Total snoops (Count)
board.cache_hierarchy.clusters.l2_xbar.snoopTraffic            0                       # Total snoop traffic (Byte)
board.cache_hierarchy.clusters.l2_xbar.snoopFanout::samples        65743                       # Request fanout histogram (Count)
board.cache_hierarchy.clusters.l2_xbar.snoopFanout::mean     0.000030                       # Request fanout histogram (Count)
board.cache_hierarchy.clusters.l2_xbar.snoopFanout::stdev     0.005516                       # Request fanout histogram (Count)
board.cache_hierarchy.clusters.l2_xbar.snoopFanout::underflows            0      0.00%      0.00% # Request fanout histogram (Count)
board.cache_hierarchy.clusters.l2_xbar.snoopFanout::0        65741    100.00%    100.00% # Request fanout histogram (Count)
board.cache_hierarchy.clusters.l2_xbar.snoopFanout::1            2      0.00%    100.00% # Request fanout histogram (Count)
board.cache_hierarchy.clusters.l2_xbar.snoopFanout::2            0      0.00%    100.00% # Request fanout histogram (Count)
board.cache_hierarchy.clusters.l2_xbar.snoopFanout::3            0      0.00%    100.00% # Request fanout histogram (Count)
board.cache_hierarchy.clusters.l2_xbar.snoopFanout::4            0      0.00%    100.00% # Request fanout histogram (Count)
board.cache_hierarchy.clusters.l2_xbar.snoopFanout::overflows            0      0.00%    100.00% # Request fanout histogram (Count)
board.cache_hierarchy.clusters.l2_xbar.snoopFanout::min_value            0                       # Request fanout histogram (Count)
board.cache_hierarchy.clusters.l2_xbar.snoopFanout::max_value            1                       # Request fanout histogram (Count)
board.cache_hierarchy.clusters.l2_xbar.snoopFanout::total        65743                       # Request fanout histogram (Count)
board.cache_hierarchy.clusters.l2_xbar.power_state.pwrStateResidencyTicks::UNDEFINED   7149961548                       # Cumulative time (in ticks) in various power states (Tick)
board.cache_hierarchy.clusters.l2_xbar.reqLayer0.occupancy     84203749                       # Layer occupancy (ticks) (Tick)
board.cache_hierarchy.clusters.l2_xbar.reqLayer0.utilization          0.0                       # Layer utilization (Ratio)
board.cache_hierarchy.clusters.l2_xbar.respLayer0.occupancy     63217385                       # Layer occupancy (ticks) (Tick)
board.cache_hierarchy.clusters.l2_xbar.respLayer0.utilization          0.0                       # Layer utilization (Ratio)
board.cache_hierarchy.clusters.l2_xbar.respLayer1.occupancy       415584                       # Layer occupancy (ticks) (Tick)
board.cache_hierarchy.clusters.l2_xbar.respLayer1.utilization          0.0                       # Layer utilization (Ratio)
board.cache_hierarchy.clusters.l2_xbar.snoop_filter.totRequests       126509                       # Total number of requests made to the snoop filter. (Count)
board.cache_hierarchy.clusters.l2_xbar.snoop_filter.hitSingleRequests        62809                       # Number of requests hitting in the snoop filter with a single holder of the requested data. (Count)
board.cache_hierarchy.clusters.l2_xbar.snoop_filter.hitMultiRequests            0                       # Number of requests hitting in the snoop filter with multiple (>1) holders of the requested data. (Count)
board.cache_hierarchy.clusters.l2_xbar.snoop_filter.totSnoops            2                       # Total number of snoops made to the snoop filter. (Count)
board.cache_hierarchy.clusters.l2_xbar.snoop_filter.hitSingleSnoops            2                       # Number of snoops hitting in the snoop filter with a single holder of the requested data. (Count)
board.cache_hierarchy.clusters.l2_xbar.snoop_filter.hitMultiSnoops            0                       # Number of snoops hitting in the snoop filter with multiple (>1) holders of the requested data. (Count)
board.cache_hierarchy.clusters.l2cache.demandHits::cache_hierarchy.clusters.l1dcache.prefetcher         3315                       # number of demand (read+write) hits (Count)
board.cache_hierarchy.clusters.l2cache.demandHits::processor.cores.core.inst            3                       # number of demand (read+write) hits (Count)
board.cache_hierarchy.clusters.l2cache.demandHits::processor.cores.core.data        59516                       # number of demand (read+write) hits (Count)
board.cache_hierarchy.clusters.l2cache.demandHits::total        62834                       # number of demand (read+write) hits (Count)
board.cache_hierarchy.clusters.l2cache.overallHits::cache_hierarchy.clusters.l1dcache.prefetcher         3315                       # number of overall hits (Count)
board.cache_hierarchy.clusters.l2cache.overallHits::processor.cores.core.inst            3                       # number of overall hits (Count)
board.cache_hierarchy.clusters.l2cache.overallHits::processor.cores.core.data        59516                       # number of overall hits (Count)
board.cache_hierarchy.clusters.l2cache.overallHits::total        62834                       # number of overall hits (Count)
board.cache_hierarchy.clusters.l2cache.demandMisses::cache_hierarchy.clusters.l1dcache.prefetcher          215                       # number of demand (read+write) misses (Count)
board.cache_hierarchy.clusters.l2cache.demandMisses::processor.cores.core.inst          415                       # number of demand (read+write) misses (Count)
board.cache_hierarchy.clusters.l2cache.demandMisses::processor.cores.core.data          235                       # number of demand (read+write) misses (Count)
board.cache_hierarchy.clusters.l2cache.demandMisses::total          865                       # number of demand (read+write) misses (Count)
board.cache_hierarchy.clusters.l2cache.overallMisses::cache_hierarchy.clusters.l1dcache.prefetcher          215                       # number of overall misses (Count)
board.cache_hierarchy.clusters.l2cache.overallMisses::processor.cores.core.inst          415                       # number of overall misses (Count)
board.cache_hierarchy.clusters.l2cache.overallMisses::processor.cores.core.data          235                       # number of overall misses (Count)
board.cache_hierarchy.clusters.l2cache.overallMisses::total          865                       # number of overall misses (Count)
board.cache_hierarchy.clusters.l2cache.demandMissLatency::cache_hierarchy.clusters.l1dcache.prefetcher     40032123                       # number of demand (read+write) miss ticks (Tick)
board.cache_hierarchy.clusters.l2cache.demandMissLatency::processor.cores.core.inst     45343278                       # number of demand (read+write) miss ticks (Tick)
board.cache_hierarchy.clusters.l2cache.demandMissLatency::processor.cores.core.data     31942359                       # number of demand (read+write) miss ticks (Tick)
board.cache_hierarchy.clusters.l2cache.demandMissLatency::total    117317760                       # number of demand (read+write) miss ticks (Tick)
board.cache_hierarchy.clusters.l2cache.overallMissLatency::cache_hierarchy.clusters.l1dcache.prefetcher     40032123                       # number of overall miss ticks (Tick)
board.cache_hierarchy.clusters.l2cache.overallMissLatency::processor.cores.core.inst     45343278                       # number of overall miss ticks (Tick)
board.cache_hierarchy.clusters.l2cache.overallMissLatency::processor.cores.core.data     31942359                       # number of overall miss ticks (Tick)
board.cache_hierarchy.clusters.l2cache.overallMissLatency::total    117317760                       # number of overall miss ticks (Tick)
board.cache_hierarchy.clusters.l2cache.demandAccesses::cache_hierarchy.clusters.l1dcache.prefetcher         3530                       # number of demand (read+write) accesses (Count)
board.cache_hierarchy.clusters.l2cache.demandAccesses::processor.cores.core.inst          418                       # number of demand (read+write) accesses (Count)
board.cache_hierarchy.clusters.l2cache.demandAccesses::processor.cores.core.data        59751                       # number of demand (read+write) accesses (Count)
board.cache_hierarchy.clusters.l2cache.demandAccesses::total        63699                       # number of demand (read+write) accesses (Count)
board.cache_hierarchy.clusters.l2cache.overallAccesses::cache_hierarchy.clusters.l1dcache.prefetcher         3530                       # number of overall (read+write) accesses (Count)
board.cache_hierarchy.clusters.l2cache.overallAccesses::processor.cores.core.inst          418                       # number of overall (read+write) accesses (Count)
board.cache_hierarchy.clusters.l2cache.overallAccesses::processor.cores.core.data        59751                       # number of overall (read+write) accesses (Count)
board.cache_hierarchy.clusters.l2cache.overallAccesses::total        63699                       # number of overall (read+write) accesses (Count)
board.cache_hierarchy.clusters.l2cache.demandMissRate::cache_hierarchy.clusters.l1dcache.prefetcher     0.060907                       # miss rate for demand accesses (Ratio)
board.cache_hierarchy.clusters.l2cache.demandMissRate::processor.cores.core.inst     0.992823                       # miss rate for demand accesses (Ratio)
board.cache_hierarchy.clusters.l2cache.demandMissRate::processor.cores.core.data     0.003933                       # miss rate for demand accesses (Ratio)
board.cache_hierarchy.clusters.l2cache.demandMissRate::total     0.013579                       # miss rate for demand accesses (Ratio)
board.cache_hierarchy.clusters.l2cache.overallMissRate::cache_hierarchy.clusters.l1dcache.prefetcher     0.060907                       # miss rate for overall accesses (Ratio)
board.cache_hierarchy.clusters.l2cache.overallMissRate::processor.cores.core.inst     0.992823                       # miss rate for overall accesses (Ratio)
board.cache_hierarchy.clusters.l2cache.overallMissRate::processor.cores.core.data     0.003933                       # miss rate for overall accesses (Ratio)
board.cache_hierarchy.clusters.l2cache.overallMissRate::total     0.013579                       # miss rate for overall accesses (Ratio)
board.cache_hierarchy.clusters.l2cache.demandAvgMissLatency::cache_hierarchy.clusters.l1dcache.prefetcher 186195.920930                       # average overall miss latency in ticks ((Tick/Count))
board.cache_hierarchy.clusters.l2cache.demandAvgMissLatency::processor.cores.core.inst 109260.910843                       # average overall miss latency in ticks ((Tick/Count))
board.cache_hierarchy.clusters.l2cache.demandAvgMissLatency::processor.cores.core.data 135924.931915                       # average overall miss latency in ticks ((Tick/Count))
board.cache_hierarchy.clusters.l2cache.demandAvgMissLatency::total 135627.468208                       # average overall miss latency in ticks ((Tick/Count))
board.cache_hierarchy.clusters.l2cache.overallAvgMissLatency::cache_hierarchy.clusters.l1dcache.prefetcher 186195.920930                       # average overall miss latency ((Tick/Count))
board.cache_hierarchy.clusters.l2cache.overallAvgMissLatency::processor.cores.core.inst 109260.910843                       # average overall miss latency ((Tick/Count))
board.cache_hierarchy.clusters.l2cache.overallAvgMissLatency::processor.cores.core.data 135924.931915                       # average overall miss latency ((Tick/Count))
board.cache_hierarchy.clusters.l2cache.overallAvgMissLatency::total 135627.468208                       # average overall miss latency ((Tick/Count))
board.cache_hierarchy.clusters.l2cache.blockedCycles::no_mshrs            0                       # number of cycles access was blocked (Cycle)
board.cache_hierarchy.clusters.l2cache.blockedCycles::no_targets            0                       # number of cycles access was blocked (Cycle)
board.cache_hierarchy.clusters.l2cache.blockedCauses::no_mshrs            0                       # number of times access was blocked (Count)
board.cache_hierarchy.clusters.l2cache.blockedCauses::no_targets            0                       # number of times access was blocked (Count)
board.cache_hierarchy.clusters.l2cache.avgBlocked::no_mshrs          nan                       # average number of cycles each access was blocked ((Cycle/Count))
board.cache_hierarchy.clusters.l2cache.avgBlocked::no_targets          nan                       # average number of cycles each access was blocked ((Cycle/Count))
board.cache_hierarchy.clusters.l2cache.demandMshrHits::cache_hierarchy.clusters.l1dcache.prefetcher          126                       # number of demand (read+write) MSHR hits (Count)
board.cache_hierarchy.clusters.l2cache.demandMshrHits::total          126                       # number of demand (read+write) MSHR hits (Count)
board.cache_hierarchy.clusters.l2cache.overallMshrHits::cache_hierarchy.clusters.l1dcache.prefetcher          126                       # number of overall MSHR hits (Count)
board.cache_hierarchy.clusters.l2cache.overallMshrHits::total          126                       # number of overall MSHR hits (Count)
board.cache_hierarchy.clusters.l2cache.demandMshrMisses::cache_hierarchy.clusters.l1dcache.prefetcher           89                       # number of demand (read+write) MSHR misses (Count)
board.cache_hierarchy.clusters.l2cache.demandMshrMisses::processor.cores.core.inst          415                       # number of demand (read+write) MSHR misses (Count)
board.cache_hierarchy.clusters.l2cache.demandMshrMisses::processor.cores.core.data          235                       # number of demand (read+write) MSHR misses (Count)
board.cache_hierarchy.clusters.l2cache.demandMshrMisses::total          739                       # number of demand (read+write) MSHR misses (Count)
board.cache_hierarchy.clusters.l2cache.overallMshrMisses::cache_hierarchy.clusters.l1dcache.prefetcher           89                       # number of overall MSHR misses (Count)
board.cache_hierarchy.clusters.l2cache.overallMshrMisses::cache_hierarchy.clusters.l2cache.prefetcher         1831                       # number of overall MSHR misses (Count)
board.cache_hierarchy.clusters.l2cache.overallMshrMisses::processor.cores.core.inst          415                       # number of overall MSHR misses (Count)
board.cache_hierarchy.clusters.l2cache.overallMshrMisses::processor.cores.core.data          235                       # number of overall MSHR misses (Count)
board.cache_hierarchy.clusters.l2cache.overallMshrMisses::total         2570                       # number of overall MSHR misses (Count)
board.cache_hierarchy.clusters.l2cache.demandMshrMissLatency::cache_hierarchy.clusters.l1dcache.prefetcher     22384587                       # number of demand (read+write) MSHR miss ticks (Tick)
board.cache_hierarchy.clusters.l2cache.demandMshrMissLatency::processor.cores.core.inst     45205749                       # number of demand (read+write) MSHR miss ticks (Tick)
board.cache_hierarchy.clusters.l2cache.demandMshrMissLatency::processor.cores.core.data     31864437                       # number of demand (read+write) MSHR miss ticks (Tick)
board.cache_hierarchy.clusters.l2cache.demandMshrMissLatency::total     99454773                       # number of demand (read+write) MSHR miss ticks (Tick)
board.cache_hierarchy.clusters.l2cache.overallMshrMissLatency::cache_hierarchy.clusters.l1dcache.prefetcher     22384587                       # number of overall MSHR miss ticks (Tick)
board.cache_hierarchy.clusters.l2cache.overallMshrMissLatency::cache_hierarchy.clusters.l2cache.prefetcher    209505063                       # number of overall MSHR miss ticks (Tick)
board.cache_hierarchy.clusters.l2cache.overallMshrMissLatency::processor.cores.core.inst     45205749                       # number of overall MSHR miss ticks (Tick)
board.cache_hierarchy.clusters.l2cache.overallMshrMissLatency::processor.cores.core.data     31864437                       # number of overall MSHR miss ticks (Tick)
board.cache_hierarchy.clusters.l2cache.overallMshrMissLatency::total    308959836                       # number of overall MSHR miss ticks (Tick)
board.cache_hierarchy.clusters.l2cache.demandMshrMissRate::cache_hierarchy.clusters.l1dcache.prefetcher     0.025212                       # mshr miss ratio for demand accesses (Ratio)
board.cache_hierarchy.clusters.l2cache.demandMshrMissRate::processor.cores.core.inst     0.992823                       # mshr miss ratio for demand accesses (Ratio)
board.cache_hierarchy.clusters.l2cache.demandMshrMissRate::processor.cores.core.data     0.003933                       # mshr miss ratio for demand accesses (Ratio)
board.cache_hierarchy.clusters.l2cache.demandMshrMissRate::total     0.011601                       # mshr miss ratio for demand accesses (Ratio)
board.cache_hierarchy.clusters.l2cache.overallMshrMissRate::cache_hierarchy.clusters.l1dcache.prefetcher     0.025212                       # mshr miss ratio for overall accesses (Ratio)
board.cache_hierarchy.clusters.l2cache.overallMshrMissRate::cache_hierarchy.clusters.l2cache.prefetcher          inf                       # mshr miss ratio for overall accesses (Ratio)
board.cache_hierarchy.clusters.l2cache.overallMshrMissRate::processor.cores.core.inst     0.992823                       # mshr miss ratio for overall accesses (Ratio)
board.cache_hierarchy.clusters.l2cache.overallMshrMissRate::processor.cores.core.data     0.003933                       # mshr miss ratio for overall accesses (Ratio)
board.cache_hierarchy.clusters.l2cache.overallMshrMissRate::total     0.040346                       # mshr miss ratio for overall accesses (Ratio)
board.cache_hierarchy.clusters.l2cache.demandAvgMshrMissLatency::cache_hierarchy.clusters.l1dcache.prefetcher 251512.213483                       # average overall mshr miss latency ((Tick/Count))
board.cache_hierarchy.clusters.l2cache.demandAvgMshrMissLatency::processor.cores.core.inst 108929.515663                       # average overall mshr miss latency ((Tick/Count))
board.cache_hierarchy.clusters.l2cache.demandAvgMshrMissLatency::processor.cores.core.data 135593.348936                       # average overall mshr miss latency ((Tick/Count))
board.cache_hierarchy.clusters.l2cache.demandAvgMshrMissLatency::total 134580.207037                       # average overall mshr miss latency ((Tick/Count))
board.cache_hierarchy.clusters.l2cache.overallAvgMshrMissLatency::cache_hierarchy.clusters.l1dcache.prefetcher 251512.213483                       # average overall mshr miss latency ((Tick/Count))
board.cache_hierarchy.clusters.l2cache.overallAvgMshrMissLatency::cache_hierarchy.clusters.l2cache.prefetcher 114421.115784                       # average overall mshr miss latency ((Tick/Count))
board.cache_hierarchy.clusters.l2cache.overallAvgMshrMissLatency::processor.cores.core.inst 108929.515663                       # average overall mshr miss latency ((Tick/Count))
board.cache_hierarchy.clusters.l2cache.overallAvgMshrMissLatency::processor.cores.core.data 135593.348936                       # average overall mshr miss latency ((Tick/Count))
board.cache_hierarchy.clusters.l2cache.overallAvgMshrMissLatency::total 120217.835019                       # average overall mshr miss latency ((Tick/Count))
board.cache_hierarchy.clusters.l2cache.replacements            0                       # number of replacements (Count)
board.cache_hierarchy.clusters.l2cache.HardPFReq.mshrMisses::cache_hierarchy.clusters.l2cache.prefetcher         1831                       # number of HardPFReq MSHR misses (Count)
board.cache_hierarchy.clusters.l2cache.HardPFReq.mshrMisses::total         1831                       # number of HardPFReq MSHR misses (Count)
board.cache_hierarchy.clusters.l2cache.HardPFReq.mshrMissLatency::cache_hierarchy.clusters.l2cache.prefetcher    209505063                       # number of HardPFReq MSHR miss ticks (Tick)
board.cache_hierarchy.clusters.l2cache.HardPFReq.mshrMissLatency::total    209505063                       # number of HardPFReq MSHR miss ticks (Tick)
board.cache_hierarchy.clusters.l2cache.HardPFReq.mshrMissRate::cache_hierarchy.clusters.l2cache.prefetcher          inf                       # mshr miss rate for HardPFReq accesses (Ratio)
board.cache_hierarchy.clusters.l2cache.HardPFReq.mshrMissRate::total          inf                       # mshr miss rate for HardPFReq accesses (Ratio)
board.cache_hierarchy.clusters.l2cache.HardPFReq.avgMshrMissLatency::cache_hierarchy.clusters.l2cache.prefetcher 114421.115784                       # average HardPFReq mshr miss latency ((Tick/Count))
board.cache_hierarchy.clusters.l2cache.HardPFReq.avgMshrMissLatency::total 114421.115784                       # average HardPFReq mshr miss latency ((Tick/Count))
board.cache_hierarchy.clusters.l2cache.InvalidateReq.misses::processor.cores.core.data            1                       # number of InvalidateReq misses (Count)
board.cache_hierarchy.clusters.l2cache.InvalidateReq.misses::total            1                       # number of InvalidateReq misses (Count)
board.cache_hierarchy.clusters.l2cache.InvalidateReq.accesses::processor.cores.core.data            1                       # number of InvalidateReq accesses(hits+misses) (Count)
board.cache_hierarchy.clusters.l2cache.InvalidateReq.accesses::total            1                       # number of InvalidateReq accesses(hits+misses) (Count)
board.cache_hierarchy.clusters.l2cache.InvalidateReq.missRate::processor.cores.core.data            1                       # miss rate for InvalidateReq accesses (Ratio)
board.cache_hierarchy.clusters.l2cache.InvalidateReq.missRate::total            1                       # miss rate for InvalidateReq accesses (Ratio)
board.cache_hierarchy.clusters.l2cache.InvalidateReq.mshrMisses::processor.cores.core.data            1                       # number of InvalidateReq MSHR misses (Count)
board.cache_hierarchy.clusters.l2cache.InvalidateReq.mshrMisses::total            1                       # number of InvalidateReq MSHR misses (Count)
board.cache_hierarchy.clusters.l2cache.InvalidateReq.mshrMissLatency::processor.cores.core.data        21645                       # number of InvalidateReq MSHR miss ticks (Tick)
board.cache_hierarchy.clusters.l2cache.InvalidateReq.mshrMissLatency::total        21645                       # number of InvalidateReq MSHR miss ticks (Tick)
board.cache_hierarchy.clusters.l2cache.InvalidateReq.mshrMissRate::processor.cores.core.data            1                       # mshr miss rate for InvalidateReq accesses (Ratio)
board.cache_hierarchy.clusters.l2cache.InvalidateReq.mshrMissRate::total            1                       # mshr miss rate for InvalidateReq accesses (Ratio)
board.cache_hierarchy.clusters.l2cache.InvalidateReq.avgMshrMissLatency::processor.cores.core.data        21645                       # average InvalidateReq mshr miss latency ((Tick/Count))
board.cache_hierarchy.clusters.l2cache.InvalidateReq.avgMshrMissLatency::total        21645                       # average InvalidateReq mshr miss latency ((Tick/Count))
board.cache_hierarchy.clusters.l2cache.ReadExReq.hits::processor.cores.core.data          531                       # number of ReadExReq hits (Count)
board.cache_hierarchy.clusters.l2cache.ReadExReq.hits::total          531                       # number of ReadExReq hits (Count)
board.cache_hierarchy.clusters.l2cache.ReadExReq.misses::processor.cores.core.data          114                       # number of ReadExReq misses (Count)
board.cache_hierarchy.clusters.l2cache.ReadExReq.misses::total          114                       # number of ReadExReq misses (Count)
board.cache_hierarchy.clusters.l2cache.ReadExReq.missLatency::processor.cores.core.data     15676308                       # number of ReadExReq miss ticks (Tick)
board.cache_hierarchy.clusters.l2cache.ReadExReq.missLatency::total     15676308                       # number of ReadExReq miss ticks (Tick)
board.cache_hierarchy.clusters.l2cache.ReadExReq.accesses::processor.cores.core.data          645                       # number of ReadExReq accesses(hits+misses) (Count)
board.cache_hierarchy.clusters.l2cache.ReadExReq.accesses::total          645                       # number of ReadExReq accesses(hits+misses) (Count)
board.cache_hierarchy.clusters.l2cache.ReadExReq.missRate::processor.cores.core.data     0.176744                       # miss rate for ReadExReq accesses (Ratio)
board.cache_hierarchy.clusters.l2cache.ReadExReq.missRate::total     0.176744                       # miss rate for ReadExReq accesses (Ratio)
board.cache_hierarchy.clusters.l2cache.ReadExReq.avgMissLatency::processor.cores.core.data 137511.473684                       # average ReadExReq miss latency ((Tick/Count))
board.cache_hierarchy.clusters.l2cache.ReadExReq.avgMissLatency::total 137511.473684                       # average ReadExReq miss latency ((Tick/Count))
board.cache_hierarchy.clusters.l2cache.ReadExReq.mshrMisses::processor.cores.core.data          114                       # number of ReadExReq MSHR misses (Count)
board.cache_hierarchy.clusters.l2cache.ReadExReq.mshrMisses::total          114                       # number of ReadExReq MSHR misses (Count)
[...]
board.processor.cores.core.fetch.nisnDist::2       398632      1.86%     77.98% # Number of instructions fetched each cycle (Total) (Count)
board.processor.cores.core.fetch.nisnDist::3       273241      1.28%     79.26% # Number of instructions fetched each cycle (Total) (Count)
board.processor.cores.core.fetch.nisnDist::4       297579      1.39%     80.65% # Number of instructions fetched each cycle (Total) (Count)
board.processor.cores.core.fetch.nisnDist::5       266043      1.24%     81.89% # Number of instructions fetched each cycle (Total) (Count)
board.processor.cores.core.fetch.nisnDist::6       262651      1.23%     83.12% # Number of instructions fetched each cycle (Total) (Count)
board.processor.cores.core.fetch.nisnDist::7       395257      1.85%     84.96% # Number of instructions fetched each cycle (Total) (Count)
board.processor.cores.core.fetch.nisnDist::8      3216638     15.04%    100.00% # Number of instructions fetched each cycle (Total) (Count)
board.processor.cores.core.fetch.nisnDist::overflows            0      0.00%    100.00% # Number of instructions fetched each cycle (Total) (Count)
board.processor.cores.core.fetch.nisnDist::min_value            0                       # Number of instructions fetched each cycle (Total) (Count)
board.processor.cores.core.fetch.nisnDist::max_value            8                       # Number of instructions fetched each cycle (Total) (Count)
board.processor.cores.core.fetch.nisnDist::total     21394100                       # Number of instructions fetched each cycle (Total) (Count)
board.processor.cores.core.fetchStats0.numInsts     35347735                       # Number of instructions fetched (thread level) (Count)
board.processor.cores.core.fetchStats0.numOps            0                       # Number of ops (including micro ops) fetched (thread level) (Count)
board.processor.cores.core.fetchStats0.fetchRate     1.646274                       # Number of inst fetches per cycle ((Count/Cycle))
board.processor.cores.core.fetchStats0.numBranches      1099517                       # Number of branches fetched (Count)
board.processor.cores.core.fetchStats0.branchRate     0.051209                       # Number of branch fetches per cycle (Ratio)
board.processor.cores.core.fetchStats0.icacheStallCycles        24010                       # ICache total stall cycles (Cycle)
board.processor.cores.core.fetchStats0.numFetchSuspends            0                       # Number of times Execute suspended instruction fetching (Count)
board.processor.cores.core.iew.idleCycles            0                       # Number of cycles IEW is idle (Cycle)
board.processor.cores.core.iew.squashCycles        11139                       # Number of cycles IEW is squashing (Cycle)
board.processor.cores.core.iew.blockCycles       133772                       # Number of cycles IEW is blocking (Cycle)
board.processor.cores.core.iew.unblockCycles      1269666                       # Number of cycles IEW is unblocking (Cycle)
board.processor.cores.core.iew.dispatchedInsts     34745513                       # Number of instructions dispatched to IQ (Count)
board.processor.cores.core.iew.dispSquashedInsts          216                       # Number of squashed instructions skipped by dispatch (Count)
board.processor.cores.core.iew.dispLoadInsts     13627114                       # Number of dispatched load instructions (Count)
board.processor.cores.core.iew.dispStoreInsts      2135665                       # Number of dispatched store instructions (Count)
board.processor.cores.core.iew.dispNonSpecInsts          106                       # Number of dispatched non-speculative instructions (Count)
board.processor.cores.core.iew.iqFullEvents        43654                       # Number of times the IQ has become full, causing a stall (Count)
board.processor.cores.core.iew.lsqFullEvents      1218417                       # Number of times the LSQ has become full, causing a stall (Count)
board.processor.cores.core.iew.memOrderViolationEvents          213                       # Number of memory order violations (Count)
board.processor.cores.core.iew.predictedTakenIncorrect        10449                       # Number of branches that were predicted taken incorrectly (Count)
board.processor.cores.core.iew.predictedNotTakenIncorrect          599                       # Number of branches that were predicted not taken incorrectly (Count)
board.processor.cores.core.iew.branchMispredicts        11048                       # Number of branch mispredicts detected at execute (Count)
board.processor.cores.core.iew.instsToCommit     34301877                       # Cumulative count of insts sent to commit (Count)
board.processor.cores.core.iew.writebackCount     34291353                       # Cumulative count of insts written-back (Count)
board.processor.cores.core.iew.producerInst     27490251                       # Number of instructions producing a value (Count)
board.processor.cores.core.iew.consumerInst     27503788                       # Number of instructions consuming a value (Count)
board.processor.cores.core.iew.wbRate        1.597074                       # Insts written-back per cycle ((Count/Cycle))
board.processor.cores.core.iew.wbFanout      0.999508                       # Average fanout of values written-back ((Count/Count))
board.processor.cores.core.lsq0.forwLoads      3112072                       # Number of loads that had data forwarded from stores (Count)
board.processor.cores.core.lsq0.squashedLoads       313757                       # Number of loads squashed (Count)
board.processor.cores.core.lsq0.ignoredResponses            7                       # Number of memory responses ignored because the instruction is squashed (Count)
board.processor.cores.core.lsq0.memOrderViolation          213                       # Number of memory ordering violations (Count)
board.processor.cores.core.lsq0.squashedStores        43409                       # Number of stores squashed (Count)
board.processor.cores.core.lsq0.rescheduledLoads            2                       # Number of loads that were rescheduled (Count)
board.processor.cores.core.lsq0.blockedByCache            2                       # Number of times an access to memory failed due to the cache being blocked (Count)
board.processor.cores.core.lsq0.loadToUse::samples     13313357                       # Distribution of cycle latency between the first time a load is issued and its completion (Unspecified)
board.processor.cores.core.lsq0.loadToUse::mean     2.220054                       # Distribution of cycle latency between the first time a load is issued and its completion (Unspecified)
board.processor.cores.core.lsq0.loadToUse::stdev     1.442871                       # Distribution of cycle latency between the first time a load is issued and its completion (Unspecified)
board.processor.cores.core.lsq0.loadToUse::0-9     13254215     99.56%     99.56% # Distribution of cycle latency between the first time a load is issued and its completion (Unspecified)
board.processor.cores.core.lsq0.loadToUse::10-19        58965      0.44%    100.00% # Distribution of cycle latency between the first time a load is issued and its completion (Unspecified)
board.processor.cores.core.lsq0.loadToUse::20-29           12      0.00%    100.00% # Distribution of cycle latency between the first time a load is issued and its completion (Unspecified)
board.processor.cores.core.lsq0.loadToUse::30-39            1      0.00%    100.00% # Distribution of cycle latency between the first time a load is issued and its completion (Unspecified)
board.processor.cores.core.lsq0.loadToUse::50-59            2      0.00%    100.00% # Distribution of cycle latency between the first time a load is issued and its completion (Unspecified)
board.processor.cores.core.lsq0.loadToUse::60-69            2      0.00%    100.00% # Distribution of cycle latency between the first time a load is issued and its completion (Unspecified)
board.processor.cores.core.lsq0.loadToUse::70-79            1      0.00%    100.00% # Distribution of cycle latency between the first time a load is issued and its completion (Unspecified)
board.processor.cores.core.lsq0.loadToUse::80-89            3      0.00%    100.00% # Distribution of cycle latency between the first time a load is issued and its completion (Unspecified)
board.processor.cores.core.lsq0.loadToUse::90-99            3      0.00%    100.00% # Distribution of cycle latency between the first time a load is issued and its completion (Unspecified)
board.processor.cores.core.lsq0.loadToUse::100-109            2      0.00%    100.00% # Distribution of cycle latency between the first time a load is issued and its completion (Unspecified)
board.processor.cores.core.lsq0.loadToUse::110-119            2      0.00%    100.00% # Distribution of cycle latency between the first time a load is issued and its completion (Unspecified)
board.processor.cores.core.lsq0.loadToUse::120-129            1      0.00%    100.00% # Distribution of cycle latency between the first time a load is issued and its completion (Unspecified)
board.processor.cores.core.lsq0.loadToUse::130-139            2      0.00%    100.00% # Distribution of cycle latency between the first time a load is issued and its completion (Unspecified)
board.processor.cores.core.lsq0.loadToUse::140-149            3      0.00%    100.00% # Distribution of cycle latency between the first time a load is issued and its completion (Unspecified)
board.processor.cores.core.lsq0.loadToUse::150-159            6      0.00%    100.00% # Distribution of cycle latency between the first time a load is issued and its completion (Unspecified)
board.processor.cores.core.lsq0.loadToUse::160-169            4      0.00%    100.00% # Distribution of cycle latency between the first time a load is issued and its completion (Unspecified)
board.processor.cores.core.lsq0.loadToUse::170-179            6      0.00%    100.00% # Distribution of cycle latency between the first time a load is issued and its completion (Unspecified)
board.processor.cores.core.lsq0.loadToUse::180-189            3      0.00%    100.00% # Distribution of cycle latency between the first time a load is issued and its completion (Unspecified)
board.processor.cores.core.lsq0.loadToUse::190-199            2      0.00%    100.00% # Distribution of cycle latency between the first time a load is issued and its completion (Unspecified)
board.processor.cores.core.lsq0.loadToUse::200-209            5      0.00%    100.00% # Distribution of cycle latency between the first time a load is issued and its completion (Unspecified)
board.processor.cores.core.lsq0.loadToUse::210-219            1      0.00%    100.00% # Distribution of cycle latency between the first time a load is issued and its completion (Unspecified)
board.processor.cores.core.lsq0.loadToUse::220-229            2      0.00%    100.00% # Distribution of cycle latency between the first time a load is issued and its completion (Unspecified)
board.processor.cores.core.lsq0.loadToUse::230-239            7      0.00%    100.00% # Distribution of cycle latency between the first time a load is issued and its completion (Unspecified)
board.processor.cores.core.lsq0.loadToUse::240-249            4      0.00%    100.00% # Distribution of cycle latency between the first time a load is issued and its completion (Unspecified)
board.processor.cores.core.lsq0.loadToUse::250-259            1      0.00%    100.00% # Distribution of cycle latency between the first time a load is issued and its completion (Unspecified)
board.processor.cores.core.lsq0.loadToUse::260-269            4      0.00%    100.00% # Distribution of cycle latency between the first time a load is issued and its completion (Unspecified)
board.processor.cores.core.lsq0.loadToUse::270-279           24      0.00%    100.00% # Distribution of cycle latency between the first time a load is issued and its completion (Unspecified)
board.processor.cores.core.lsq0.loadToUse::280-289            3      0.00%    100.00% # Distribution of cycle latency between the first time a load is issued and its completion (Unspecified)
board.processor.cores.core.lsq0.loadToUse::290-299           12      0.00%    100.00% # Distribution of cycle latency between the first time a load is issued and its completion (Unspecified)
board.processor.cores.core.lsq0.loadToUse::overflows           59      0.00%    100.00% # Distribution of cycle latency between the first time a load is issued and its completion (Unspecified)
board.processor.cores.core.lsq0.loadToUse::min_value            2                       # Distribution of cycle latency between the first time a load is issued and its completion (Unspecified)
board.processor.cores.core.lsq0.loadToUse::max_value          667                       # Distribution of cycle latency between the first time a load is issued and its completion (Unspecified)
board.processor.cores.core.lsq0.loadToUse::total     13313357                       # Distribution of cycle latency between the first time a load is issued and its completion (Unspecified)
board.processor.cores.core.mmu.dtb.readHits            0                       # read hits (Count)
board.processor.cores.core.mmu.dtb.readMisses            0                       # read misses (Count)
board.processor.cores.core.mmu.dtb.readAccesses            0                       # read accesses (Count)
board.processor.cores.core.mmu.dtb.writeHits            0                       # write hits (Count)
board.processor.cores.core.mmu.dtb.writeMisses            0                       # write misses (Count)
board.processor.cores.core.mmu.dtb.writeAccesses            0                       # write accesses (Count)
board.processor.cores.core.mmu.dtb.hits             0                       # Total TLB (read and write) hits (Count)
board.processor.cores.core.mmu.dtb.misses            0                       # Total TLB (read and write) misses (Count)
board.processor.cores.core.mmu.dtb.accesses            0                       # Total TLB (read and write) accesses (Count)
board.processor.cores.core.mmu.dtb.walker.num_4kb_walks            0                       # Completed page walks with 4KB pages (Count)
board.processor.cores.core.mmu.dtb.walker.num_2mb_walks            0                       # Completed page walks with 2MB pages (Count)
board.processor.cores.core.mmu.dtb.walker.power_state.pwrStateResidencyTicks::UNDEFINED   7149961548                       # Cumulative time (in ticks) in various power states (Tick)
board.processor.cores.core.mmu.itb.readHits            0                       # read hits (Count)
board.processor.cores.core.mmu.itb.readMisses            0                       # read misses (Count)
board.processor.cores.core.mmu.itb.readAccesses            0                       # read accesses (Count)
board.processor.cores.core.mmu.itb.writeHits            0                       # write hits (Count)
board.processor.cores.core.mmu.itb.writeMisses            0                       # write misses (Count)
board.processor.cores.core.mmu.itb.writeAccesses            0                       # write accesses (Count)
board.processor.cores.core.mmu.itb.hits             0                       # Total TLB (read and write) hits (Count)
board.processor.cores.core.mmu.itb.misses            0                       # Total TLB (read and write) misses (Count)
board.processor.cores.core.mmu.itb.accesses            0                       # Total TLB (read and write) accesses (Count)
board.processor.cores.core.mmu.itb.walker.num_4kb_walks            0                       # Completed page walks with 4KB pages (Count)
board.processor.cores.core.mmu.itb.walker.num_2mb_walks            0                       # Completed page walks with 2MB pages (Count)
board.processor.cores.core.mmu.itb.walker.power_state.pwrStateResidencyTicks::UNDEFINED   7149961548                       # Cumulative time (in ticks) in various power states (Tick)
board.processor.cores.core.power_state.pwrStateResidencyTicks::ON   7149961548                       # Cumulative time (in ticks) in various power states (Tick)
board.processor.cores.core.rename.squashCycles        11139                       # Number of cycles rename is squashing (Cycle)
board.processor.cores.core.rename.idleCycles      2212489                       # Number of cycles rename is idle (Cycle)
board.processor.cores.core.rename.blockCycles      1476590                       # Number of cycles rename is blocking (Cycle)
board.processor.cores.core.rename.serializeStallCycles         5208                       # count of cycles rename stalled for serializing inst (Cycle)
board.processor.cores.core.rename.runCycles      3321461                       # Number of cycles rename is running (Cycle)
board.processor.cores.core.rename.unblockCycles     14367213                       # Number of cycles rename is unblocking (Cycle)
board.processor.cores.core.rename.renamedInsts     34771626                       # Number of instructions processed by rename (Count)
board.processor.cores.core.rename.ROBFullEvents            9                       # Number of times rename has blocked due to ROB full (Count)
board.processor.cores.core.rename.IQFullEvents      6057421                       # Number of times rename has blocked due to IQ full (Count)
board.processor.cores.core.rename.LQFullEvents     14019194                       # Number of times rename has blocked due to LQ full (Count)
board.processor.cores.core.rename.SQFullEvents        15923                       # Number of times rename has blocked due to SQ full (Count)
board.processor.cores.core.rename.renamedOperands     31558503                       # Number of destination operands rename has renamed (Count)
board.processor.cores.core.rename.lookups     46317674                       # Number of register rename lookups that rename has made (Count)
board.processor.cores.core.rename.intLookups     46295974                       # Number of integer rename lookups (Count)
board.processor.cores.core.rename.fpLookups           12                       # Number of floating rename lookups (Count)
board.processor.cores.core.rename.committedMaps     30809748                       # Number of HB maps that are committed (Count)
board.processor.cores.core.rename.undoneMaps       748755                       # Number of HB maps that are undone due to squashing (Count)
board.processor.cores.core.rename.serializing           72                       # count of serializing insts renamed (Count)
board.processor.cores.core.rename.tempSerializing           72                       # count of temporary serializing insts renamed (Count)
board.processor.cores.core.rename.skidInsts     13588605                       # count of insts added to the skid buffer (Count)
board.processor.cores.core.rob.reads         53973477                       # The number of ROB reads (Count)
board.processor.cores.core.rob.writes        69597010                       # The number of ROB writes (Count)
board.processor.cores.core.thread_0.numInsts     33954546                       # Number of Instructions committed (Count)
board.processor.cores.core.thread_0.numOps     33954560                       # Number of Ops committed (Count)
board.processor.cores.core.thread_0.numMemRefs            0                       # Number of Memory References (Count)
board.processor.cores.core.workload.numSyscalls           14                       # Number of system calls (Count)
board.workload.inst.arm                             0                       # number of arm instructions executed (Count)
board.workload.inst.quiesce                         0                       # number of quiesce instructions executed (Count)

---------- End Simulation Statistics   ----------
