
---------- Begin Simulation Statistics ----------
simSeconds                                   0.014971                       # Number of seconds simulated (Second)
simTicks                                  14971024323                       # Number of ticks simulated (Tick)
finalTick                                 14971024323                       # Number of ticks from beginning of simulation (restored from checkpoints and never reset) (Tick)
simFreq                                  1000000000000                       # The number of ticks per simulated second ((Tick/Second))
hostSeconds                                    142.17                       # Real time elapsed on the host (Second)
hostTickRate                                105300698                       # The number of ticks simulated per host second (ticks/s) ((Tick/Second))
hostMemory                                    2370944                       # Number of bytes of host memory used (Byte)
simInsts                                     33954546                       # Number of instructions simulated (Count)
simOps                                       33954560                       # Number of ops (including micro ops) simulated (Count)
hostInstRate                                   238824                       # Simulator instruction rate (inst/s) ((Count/Second))
hostOpRate                                     238824                       # Simulator op (including micro ops) rate (op/s) ((Count/Second))
board.cache_hierarchy.clusters.dptw_cache.blockedCycles::no_mshrs            0                       # number of cycles access was blocked (Cycle)
board.cache_hierarchy.clusters.dptw_cache.blockedCycles::no_targets            0                       # number of cycles access was blocked (Cycle)
board.cache_hierarchy.clusters.dptw_cache.blockedCauses::no_mshrs            0                       # number of times access was blocked (Count)
board.cache_hierarchy.clusters.dptw_cache.blockedCauses::no_targets            0                       # number of times access was blocked (Count)
board.cache_hierarchy.clusters.dptw_cache.avgBlocked::no_mshrs          nan                       # average number of cycles each access was blocked ((Cycle/Count))
board.cache_hierarchy.clusters.dptw_cache.avgBlocked::no_targets          nan                       # average number of cycles each access was blocked ((Cycle/Count))
board.cache_hierarchy.clusters.dptw_cache.replacements            0                       # number of replacements (Count)
board.cache_hierarchy.clusters.dptw_cache.power_state.pwrStateResidencyTicks::UNDEFINED  14971024323                       # Cumulative time (in ticks) in various power states (Tick)
board.cache_hierarchy.clusters.dptw_cache.tags.tagsInUse            0                       # Average ticks per tags in use ((Tick/Count))
board.cache_hierarchy.clusters.dptw_cache.tags.totalRefs            0                       # Total number of references to valid blocks. (Count)
board.cache_hierarchy.clusters.dptw_cache.tags.sampledRefs            0                       # Sample count of references to valid blocks. (Count)
board.cache_hierarchy.clusters.dptw_cache.tags.avgRefs          nan                       # Average number of references to valid blocks. ((Count/Count))
board.cache_hierarchy.clusters.dptw_cache.tags.warmupTick            0                       # The tick when the warmup percentage was hit. (Tick)
board.cache_hierarchy.clusters.dptw_cache.tags.tagAccesses            0                       # Number of tag accesses (Count)
board.cache_hierarchy.clusters.dptw_cache.tags.dataAccesses            0                       # Number of data accesses (Count)
board.cache_hierarchy.clusters.dptw_cache.tags.power_state.pwrStateResidencyTicks::UNDEFINED  14971024323                       # Cumulative time (in ticks) in various power states (Tick)
board.cache_hierarchy.clusters.iptw_cache.blockedCycles::no_mshrs            0                       # number of cycles access was blocked (Cycle)
board.cache_hierarchy.clusters.iptw_cache.blockedCycles::no_targets            0                       # number of cycles access was blocked (Cycle)
board.cache_hierarchy.clusters.iptw_cache.blockedCauses::no_mshrs            0                       # number of times access was blocked (Count)
board.cache_hierarchy.clusters.iptw_cache.blockedCauses::no_targets            0                       # number of times access was blocked (Count)
board.cache_hierarchy.clusters.iptw_cache.avgBlocked::no_mshrs          nan                       # average number of cycles each access was blocked ((Cycle/Count))
board.cache_hierarchy.clusters.iptw_cache.avgBlocked::no_targets          nan                       # average number of cycles each access was blocked ((Cycle/Count))
board.cache_hierarchy.clusters.iptw_cache.replacements            0                       # number of replacements (Count)
board.cache_hierarchy.clusters.iptw_cache.power_state.pwrStateResidencyTicks::UNDEFINED  14971024323                       # Cumulative time (in ticks) in various power states (Tick)
board.cache_hierarchy.clusters.iptw_cache.tags.tagsInUse            0                       # Average ticks per tags in use ((Tick/Count))
board.cache_hierarchy.clusters.iptw_cache.tags.totalRefs            0                       # Total number of references to valid blocks. (Count)
board.cache_hierarchy.clusters.iptw_cache.tags.sampledRefs            0                       # Sample count of references to valid blocks. (Count)
board.cache_hierarchy.clusters.iptw_cache.tags.avgRefs          nan                       # Average number of references to valid blocks. ((Count/Count))
board.cache_hierarchy.clusters.iptw_cache.tags.warmupTick            0                       # The tick when the warmup percentage was hit. (Tick)
board.cache_hierarchy.clusters.iptw_cache.tags.tagAccesses            0                       # Number of tag accesses (Count)
board.cache_hierarchy.clusters.iptw_cache.tags.dataAccesses            0                       # Number of data accesses (Count)
board.cache_hierarchy.clusters.iptw_cache.tags.power_state.pwrStateResidencyTicks::UNDEFINED  14971024323                       # Cumulative time (in ticks) in various power states (Tick)
board.cache_hierarchy.clusters.l1dcache.demandHits::processor.cores.core.data     14315423                       # number of demand (read+write) hits (Count)
board.cache_hierarchy.clusters.l1dcache.demandHits::total     14315423                       # number of demand (read+write) hits (Count)
board.cache_hierarchy.clusters.l1dcache.overallHits::processor.cores.core.data     14315423                       # number of overall hits (Count)
board.cache_hierarchy.clusters.l1dcache.overallHits::total     14315423                       # number of overall hits (Count)
board.cache_hierarchy.clusters.l1dcache.demandMisses::processor.cores.core.data        60192                       # number of demand (read+write) misses (Count)
board.cache_hierarchy.clusters.l1dcache.demandMisses::total        60192                       # number of demand (read+write) misses (Count)
board.cache_hierarchy.clusters.l1dcache.overallMisses::processor.cores.core.data        60192                       # number of overall misses (Count)
board.cache_hierarchy.clusters.l1dcache.overallMisses::total        60192                       # number of overall misses (Count)
board.cache_hierarchy.clusters.l1dcache.demandMissLatency::processor.cores.core.data    344058264                       # number of demand (read+write) miss ticks (Tick)
board.cache_hierarchy.clusters.l1dcache.demandMissLatency::total    344058264                       # number of demand (read+write) miss ticks (Tick)
board.cache_hierarchy.clusters.l1dcache.overallMissLatency::processor.cores.core.data    344058264                       # number of overall miss ticks (Tick)
board.cache_hierarchy.clusters.l1dcache.overallMissLatency::total    344058264                       # number of overall miss ticks (Tick)
board.cache_hierarchy.clusters.l1dcache.demandAccesses::processor.cores.core.data     14375615                       # number of demand (read+write) accesses (Count)
board.cache_hierarchy.clusters.l1dcache.demandAccesses::total     14375615                       # number of demand (read+write) accesses (Count)
board.cache_hierarchy.clusters.l1dcache.overallAccesses::processor.cores.core.data     14375615                       # number of overall (read+write) accesses (Count)
board.cache_hierarchy.clusters.l1dcache.overallAccesses::total     14375615                       # number of overall (read+write) accesses (Count)
board.cache_hierarchy.clusters.l1dcache.demandMissRate::processor.cores.core.data     0.004187                       # miss rate for demand accesses (Ratio)
board.cache_hierarchy.clusters.l1dcache.demandMissRate::total     0.004187                       # miss rate for demand accesses (Ratio)
board.cache_hierarchy.clusters.l1dcache.overallMissRate::processor.cores.core.data     0.004187                       # miss rate for overall accesses (Ratio)
board.cache_hierarchy.clusters.l1dcache.overallMissRate::total     0.004187                       # miss rate for overall accesses (Ratio)
board.cache_hierarchy.clusters.l1dcache.demandAvgMissLatency::processor.cores.core.data  5716.013158                       # average overall miss latency in ticks ((Tick/Count))
board.cache_hierarchy.clusters.l1dcache.demandAvgMissLatency::total  5716.013158                       # average overall miss latency in ticks ((Tick/Count))
board.cache_hierarchy.clusters.l1dcache.overallAvgMissLatency::processor.cores.core.data  5716.013158                       # average overall miss latency ((Tick/Count))
board.cache_hierarchy.clusters.l1dcache.overallAvgMissLatency::total  5716.013158                       # average overall miss latency ((Tick/Count))
board.cache_hierarchy.clusters.l1dcache.blockedCycles::no_mshrs            0                       # number of cycles access was blocked (Cycle)
board.cache_hierarchy.clusters.l1dcache.blockedCycles::no_targets            0                       # number of cycles access was blocked (Cycle)
board.cache_hierarchy.clusters.l1dcache.blockedCauses::no_mshrs            0                       # number of times access was blocked (Count)
board.cache_hierarchy.clusters.l1dcache.blockedCauses::no_targets            0                       # number of times access was blocked (Count)
board.cache_hierarchy.clusters.l1dcache.avgBlocked::no_mshrs          nan                       # average number of cycles each access was blocked ((Cycle/Count))
board.cache_hierarchy.clusters.l1dcache.avgBlocked::no_targets          nan                       # average number of cycles each access was blocked ((Cycle/Count))
board.cache_hierarchy.clusters.l1dcache.writebacks::writebacks        61955                       # number of writebacks (Count)
board.cache_hierarchy.clusters.l1dcache.writebacks::total        61955                       # number of writebacks (Count)
board.cache_hierarchy.clusters.l1dcache.demandMshrHits::processor.cores.core.data          530                       # number of demand (read+write) MSHR hits (Count)
board.cache_hierarchy.clusters.l1dcache.demandMshrHits::total          530                       # number of demand (read+write) MSHR hits (Count)
board.cache_hierarchy.clusters.l1dcache.overallMshrHits::processor.cores.core.data          530                       # number of overall MSHR hits (Count)
board.cache_hierarchy.clusters.l1dcache.overallMshrHits::total          530                       # number of overall MSHR hits (Count)
board.cache_hierarchy.clusters.l1dcache.demandMshrMisses::processor.cores.core.data        59662                       # number of demand (read+write) MSHR misses (Count)
board.cache_hierarchy.clusters.l1dcache.demandMshrMisses::total        59662                       # number of demand (read+write) MSHR misses (Count)
board.cache_hierarchy.clusters.l1dcache.overallMshrMisses::cache_hierarchy.clusters.l1dcache.prefetcher         3501                       # number of overall MSHR misses (Count)
board.cache_hierarchy.clusters.l1dcache.overallMshrMisses::processor.cores.core.data        59662                       # number of overall MSHR misses (Count)
board.cache_hierarchy.clusters.l1dcache.overallMshrMisses::total        63163                       # number of overall MSHR misses (Count)
board.cache_hierarchy.clusters.l1dcache.demandMshrMissLatency::processor.cores.core.data    281973744                       # number of demand (read+write) MSHR miss ticks (Tick)
board.cache_hierarchy.clusters.l1dcache.demandMshrMissLatency::total    281973744                       # number of demand (read+write) MSHR miss ticks (Tick)
board.cache_hierarchy.clusters.l1dcache.overallMshrMissLatency::cache_hierarchy.clusters.l1dcache.prefetcher     38253042                       # number of overall MSHR miss ticks (Tick)
board.cache_hierarchy.clusters.l1dcache.overallMshrMissLatency::processor.cores.core.data    281973744                       # number of overall MSHR miss ticks (Tick)
board.cache_hierarchy.clusters.l1dcache.overallMshrMissLatency::total    320226786                       # number of overall MSHR miss ticks (Tick)
board.cache_hierarchy.clusters.l1dcache.demandMshrMissRate::processor.cores.core.data     0.004150                       # mshr miss ratio for demand accesses (Ratio)
board.cache_hierarchy.clusters.l1dcache.demandMshrMissRate::total     0.004150                       # mshr miss ratio for demand accesses (Ratio)
board.cache_hierarchy.clusters.l1dcache.overallMshrMissRate::cache_hierarchy.clusters.l1dcache.prefetcher          inf                       # mshr miss ratio for overall accesses (Ratio)
board.cache_hierarchy.clusters.l1dcache.overallMshrMissRate::processor.cores.core.data     0.004150                       # mshr miss ratio for overall accesses (Ratio)
board.cache_hierarchy.clusters.l1dcache.overallMshrMissRate::total     0.004394                       # mshr miss ratio for overall accesses (Ratio)
board.cache_hierarchy.clusters.l1dcache.demandAvgMshrMissLatency::processor.cores.core.data  4726.186584                       # average overall mshr miss latency ((Tick/Count))
board.cache_hierarchy.clusters.l1dcache.demandAvgMshrMissLatency::total  4726.186584                       # average overall mshr miss latency ((Tick/Count))
board.cache_hierarchy.clusters.l1dcache.overallAvgMshrMissLatency::cache_hierarchy.clusters.l1dcache.prefetcher 10926.318766                       # average overall mshr miss latency ((Tick/Count))
board.cache_hierarchy.clusters.l1dcache.overallAvgMshrMissLatency::processor.cores.core.data  4726.186584                       # average overall mshr miss latency ((Tick/Count))
board.cache_hierarchy.clusters.l1dcache.overallAvgMshrMissLatency::total  5069.847632                       # average overall mshr miss latency ((Tick/Count))
board.cache_hierarchy.clusters.l1dcache.replacements        62653                       # number of replacements (Count)
board.cache_hierarchy.clusters.l1dcache.HardPFReq.mshrMisses::cache_hierarchy.clusters.l1dcache.prefetcher         3501                       # number of HardPFReq MSHR misses (Count)
board.cache_hierarchy.clusters.l1dcache.HardPFReq.mshrMisses::total         3501                       # number of HardPFReq MSHR misses (Count)
board.cache_hierarchy.clusters.l1dcache.HardPFReq.mshrMissLatency::cache_hierarchy.clusters.l1dcache.prefetcher     38253042                       # number of HardPFReq MSHR miss ticks (Tick)
board.cache_hierarchy.clusters.l1dcache.HardPFReq.mshrMissLatency::total     38253042                       # number of HardPFReq MSHR miss ticks (Tick)
board.cache_hierarchy.clusters.l1dcache.HardPFReq.mshrMissRate::cache_hierarchy.clusters.l1dcache.prefetcher          inf                       # mshr miss rate for HardPFReq accesses (Ratio)
board.cache_hierarchy.clusters.l1dcache.HardPFReq.mshrMissRate::total          inf                       # mshr miss rate for HardPFReq accesses (Ratio)
board.cache_hierarchy.clusters.l1dcache.HardPFReq.avgMshrMissLatency::cache_hierarchy.clusters.l1dcache.prefetcher 10926.318766                       # average HardPFReq mshr miss latency ((Tick/Count))
board.cache_hierarchy.clusters.l1dcache.HardPFReq.avgMshrMissLatency::total 10926.318766                       # average HardPFReq mshr miss latency ((Tick/Count))
board.cache_hierarchy.clusters.l1dcache.LoadLockedReq.hits::processor.cores.core.data            8                       # number of LoadLockedReq hits (Count)
board.cache_hierarchy.clusters.l1dcache.LoadLockedReq.hits::total            8                       # number of LoadLockedReq hits (Count)
board.cache_hierarchy.clusters.l1dcache.LoadLockedReq.misses::processor.cores.core.data            7                       # number of LoadLockedReq misses (Count)
board.cache_hierarchy.clusters.l1dcache.LoadLockedReq.misses::total            7                       # number of LoadLockedReq misses (Count)
board.cache_hierarchy.clusters.l1dcache.LoadLockedReq.missLatency::processor.cores.core.data       291375                       # number of LoadLockedReq miss ticks (Tick)
board.cache_hierarchy.clusters.l1dcache.LoadLockedReq.missLatency::total       291375                       # number of LoadLockedReq miss ticks (Tick)
board.cache_hierarchy.clusters.l1dcache.LoadLockedReq.accesses::processor.cores.core.data           15                       # number of LoadLockedReq accesses(hits+misses) (Count)
board.cache_hierarchy.clusters.l1dcache.LoadLockedReq.accesses::total           15                       # number of LoadLockedReq accesses(hits+misses) (Count)
board.cache_hierarchy.clusters.l1dcache.LoadLockedReq.missRate::processor.cores.core.data     0.466667                       # miss rate for LoadLockedReq accesses (Ratio)
board.cache_hierarchy.clusters.l1dcache.LoadLockedReq.missRate::total     0.466667                       # miss rate for LoadLockedReq accesses (Ratio)
board.cache_hierarchy.clusters.l1dcache.LoadLockedReq.avgMissLatency::processor.cores.core.data        41625                       # average LoadLockedReq miss latency ((Tick/Count))
board.cache_hierarchy.clusters.l1dcache.LoadLockedReq.avgMissLatency::total        41625                       # average LoadLockedReq miss latency ((Tick/Count))
board.cache_hierarchy.clusters.l1dcache.LoadLockedReq.mshrHits::processor.cores.core.data            5                       # number of LoadLockedReq MSHR hits (Count)
board.cache_hierarchy.clusters.l1dcache.LoadLockedReq.mshrHits::total            5                       # number of LoadLockedReq MSHR hits (Count)
board.cache_hierarchy.clusters.l1dcache.LoadLockedReq.mshrMisses::processor.cores.core.data            2                       # number of LoadLockedReq MSHR misses (Count)
board.cache_hierarchy.clusters.l1dcache.LoadLockedReq.mshrMisses::total            2                       # number of LoadLockedReq MSHR misses (Count)
board.cache_hierarchy.clusters.l1dcache.LoadLockedReq.mshrMissLatency::processor.cores.core.data        95571                       # number of LoadLockedReq MSHR miss ticks (Tick)
board.cache_hierarchy.clusters.l1dcache.LoadLockedReq.mshrMissLatency::total        95571                       # number of LoadLockedReq MSHR miss ticks (Tick)
board.cache_hierarchy.clusters.l1dcache.LoadLockedReq.mshrMissRate::processor.cores.core.data     0.133333                       # mshr miss rate for LoadLockedReq accesses (Ratio)
board.cache_hierarchy.clusters.l1dcache.LoadLockedReq.mshrMissRate::total     0.133333                       # mshr miss rate for LoadLockedReq accesses (Ratio)
board.cache_hierarchy.clusters.l1dcache.LoadLockedReq.avgMshrMissLatency::processor.cores.core.data 47785.500000                       # average LoadLockedReq mshr miss latency ((Tick/Count))
board.cache_hierarchy.clusters.l1dcache.LoadLockedReq.avgMshrMissLatency::total 47785.500000                       # average LoadLockedReq mshr miss latency ((Tick/Count))
board.cache_hierarchy.clusters.l1dcache.ReadReq.hits::processor.cores.core.data     12224323                       # number of ReadReq hits (Count)
board.cache_hierarchy.clusters.l1dcache.ReadReq.hits::total     12224323                       # number of ReadReq hits (Count)
board.cache_hierarchy.clusters.l1dcache.ReadReq.misses::processor.cores.core.data        59075                       # number of ReadReq misses (Count)
board.cache_hierarchy.clusters.l1dcache.ReadReq.misses::total        59075                       # number of ReadReq misses (Count)
board.cache_hierarchy.clusters.l1dcache.ReadReq.missLatency::processor.cores.core.data    289544166                       # number of ReadReq miss ticks (Tick)
board.cache_hierarchy.clusters.l1dcache.ReadReq.missLatency::total    289544166                       # number of ReadReq miss ticks (Tick)
board.cache_hierarchy.clusters.l1dcache.ReadReq.accesses::processor.cores.core.data     12283398                       # number of ReadReq accesses(hits+misses) (Count)
board.cache_hierarchy.clusters.l1dcache.ReadReq.accesses::total     12283398                       # number of ReadReq accesses(hits+misses) (Count)
board.cache_hierarchy.clusters.l1dcache.ReadReq.missRate::processor.cores.core.data     0.004809                       # miss rate for ReadReq accesses (Ratio)
board.cache_hierarchy.clusters.l1dcache.ReadReq.missRate::total     0.004809                       # miss rate for ReadReq accesses (Ratio)
board.cache_hierarchy.clusters.l1dcache.ReadReq.avgMissLatency::processor.cores.core.data  4901.297774                       # average ReadReq miss latency ((Tick/Count))
board.cache_hierarchy.clusters.l1dcache.ReadReq.avgMissLatency::total  4901.297774                       # average ReadReq miss latency ((Tick/Count))
board.cache_hierarchy.clusters.l1dcache.ReadReq.mshrHits::processor.cores.core.data           68                       # number of ReadReq MSHR hits (Count)
board.cache_hierarchy.clusters.l1dcache.ReadReq.mshrHits::total           68                       # number of ReadReq MSHR hits (Count)
board.cache_hierarchy.clusters.l1dcache.ReadReq.mshrMisses::processor.cores.core.data        59007                       # number of ReadReq MSHR misses (Count)
board.cache_hierarchy.clusters.l1dcache.ReadReq.mshrMisses::total        59007                       # number of ReadReq MSHR misses (Count)
board.cache_hierarchy.clusters.l1dcache.ReadReq.mshrMissLatency::processor.cores.core.data    265613454                       # number of ReadReq MSHR miss ticks (Tick)
board.cache_hierarchy.clusters.l1dcache.ReadReq.mshrMissLatency::total    265613454                       # number of ReadReq MSHR miss ticks (Tick)
board.cache_hierarchy.clusters.l1dcache.ReadReq.mshrMissRate::processor.cores.core.data     0.004804                       # mshr miss rate for ReadReq accesses (Ratio)
board.cache_hierarchy.clusters.l1dcache.ReadReq.mshrMissRate::total     0.004804                       # mshr miss rate for ReadReq accesses (Ratio)
board.cache_hierarchy.clusters.l1dcache.ReadReq.avgMshrMissLatency::processor.cores.core.data  4501.388886                       # average ReadReq mshr miss latency ((Tick/Count))
board.cache_hierarchy.clusters.l1dcache.ReadReq.avgMshrMissLatency::total  4501.388886                       # average ReadReq mshr miss latency ((Tick/Count))
board.cache_hierarchy.clusters.l1dcache.StoreCondReq.hits::processor.cores.core.data           14                       # number of StoreCondReq hits (Count)
board.cache_hierarchy.clusters.l1dcache.StoreCondReq.hits::total           14                       # number of StoreCondReq hits (Count)
board.cache_hierarchy.clusters.l1dcache.StoreCondReq.accesses::processor.cores.core.data           14                       # number of StoreCondReq accesses(hits+misses) (Count)
board.cache_hierarchy.clusters.l1dcache.StoreCondReq.accesses::total           14                       # number of StoreCondReq accesses(hits+misses) (Count)
board.cache_hierarchy.clusters.l1dcache.SwapReq.hits::processor.cores.core.data           24                       # number of SwapReq hits (Count)
board.cache_hierarchy.clusters.l1dcache.SwapReq.hits::total           24                       # number of SwapReq hits (Count)
board.cache_hierarchy.clusters.l1dcache.SwapReq.misses::processor.cores.core.data            1                       # number of SwapReq misses (Count)
board.cache_hierarchy.clusters.l1dcache.SwapReq.misses::total            1                       # number of SwapReq misses (Count)
board.cache_hierarchy.clusters.l1dcache.SwapReq.missLatency::processor.cores.core.data       117549                       # number of SwapReq miss ticks (Tick)
board.cache_hierarchy.clusters.l1dcache.SwapReq.missLatency::total       117549                       # number of SwapReq miss ticks (Tick)
board.cache_hierarchy.clusters.l1dcache.SwapReq.accesses::processor.cores.core.data           25                       # number of SwapReq accesses(hits+misses) (Count)
board.cache_hierarchy.clusters.l1dcache.SwapReq.accesses::total           25                       # number of SwapReq accesses(hits+misses) (Count)
board.cache_hierarchy.clusters.l1dcache.SwapReq.missRate::processor.cores.core.data     0.040000                       # miss rate for SwapReq accesses (Ratio)
board.cache_hierarchy.clusters.l1dcache.SwapReq.missRate::total     0.040000                       # miss rate for SwapReq accesses (Ratio)
board.cache_hierarchy.clusters.l1dcache.SwapReq.avgMissLatency::processor.cores.core.data       117549                       # average SwapReq miss latency ((Tick/Count))
board.cache_hierarchy.clusters.l1dcache.SwapReq.avgMissLatency::total       117549                       # average SwapReq miss latency ((Tick/Count))
board.cache_hierarchy.clusters.l1dcache.SwapReq.mshrMisses::processor.cores.core.data            1                       # number of SwapReq MSHR misses (Count)
board.cache_hierarchy.clusters.l1dcache.SwapReq.mshrMisses::total            1                       # number of SwapReq MSHR misses (Count)
board.cache_hierarchy.clusters.l1dcache.SwapReq.mshrMissLatency::processor.cores.core.data       117216                       # number of SwapReq MSHR miss ticks (Tick)
board.cache_hierarchy.clusters.l1dcache.SwapReq.mshrMissLatency::total       117216                       # number of SwapReq MSHR miss ticks (Tick)
board.cache_hierarchy.clusters.l1dcache.SwapReq.mshrMissRate::processor.cores.core.data     0.040000                       # mshr miss rate for SwapReq accesses (Ratio)
board.cache_hierarchy.clusters.l1dcache.SwapReq.mshrMissRate::total     0.040000                       # mshr miss rate for SwapReq accesses (Ratio)
board.cache_hierarchy.clusters.l1dcache.SwapReq.avgMshrMissLatency::processor.cores.core.data       117216                       # average SwapReq mshr miss latency ((Tick/Count))
board.cache_hierarchy.clusters.l1dcache.SwapReq.avgMshrMissLatency::total       117216                       # average SwapReq mshr miss latency ((Tick/Count))
board.cache_hierarchy.clusters.l1dcache.WriteReq.hits::processor.cores.core.data      2091100                       # number of WriteReq hits (Count)
board.cache_hierarchy.clusters.l1dcache.WriteReq.hits::total      2091100                       # number of WriteReq hits (Count)
board.cache_hierarchy.clusters.l1dcache.WriteReq.misses::processor.cores.core.data         1117                       # number of WriteReq misses (Count)
board.cache_hierarchy.clusters.l1dcache.WriteReq.misses::total         1117                       # number of WriteReq misses (Count)
board.cache_hierarchy.clusters.l1dcache.WriteReq.missLatency::processor.cores.core.data     54514098                       # number of WriteReq miss ticks (Tick)
board.cache_hierarchy.clusters.l1dcache.WriteReq.missLatency::total     54514098                       # number of WriteReq miss ticks (Tick)
board.cache_hierarchy.clusters.l1dcache.WriteReq.accesses::processor.cores.core.data      2092217                       # number of WriteReq accesses(hits+misses) (Count)
board.cache_hierarchy.clusters.l1dcache.WriteReq.accesses::total      2092217                       # number of WriteReq accesses(hits+misses) (Count)
board.cache_hierarchy.clusters.l1dcache.WriteReq.missRate::processor.cores.core.data     0.000534                       # miss rate for WriteReq accesses (Ratio)
board.cache_hierarchy.clusters.l1dcache.WriteReq.missRate::total     0.000534                       # miss rate for WriteReq accesses (Ratio)
board.cache_hierarchy.clusters.l1dcache.WriteReq.avgMissLatency::processor.cores.core.data 48804.026858                       # average WriteReq miss latency ((Tick/Count))
board.cache_hierarchy.clusters.l1dcache.WriteReq.avgMissLatency::total 48804.026858                       # average WriteReq miss latency ((Tick/Count))
board.cache_hierarchy.clusters.l1dcache.WriteReq.mshrHits::processor.cores.core.data          462                       # number of WriteReq MSHR hits (Count)
board.cache_hierarchy.clusters.l1dcache.WriteReq.mshrHits::total          462                       # number of WriteReq MSHR hits (Count)
board.cache_hierarchy.clusters.l1dcache.WriteReq.mshrMisses::processor.cores.core.data          655                       # number of WriteReq MSHR misses (Count)
board.cache_hierarchy.clusters.l1dcache.WriteReq.mshrMisses::total          655                       # number of WriteReq MSHR misses (Count)
board.cache_hierarchy.clusters.l1dcache.WriteReq.mshrMissLatency::processor.cores.core.data     16360290                       # number of WriteReq MSHR miss ticks (Tick)
board.cache_hierarchy.clusters.l1dcache.WriteReq.mshrMissLatency::total     16360290                       # number of WriteReq MSHR miss ticks (Tick)
board.cache_hierarchy.clusters.l1dcache.WriteReq.mshrMissRate::processor.cores.core.data     0.000313                       # mshr miss rate for WriteReq accesses (Ratio)
board.cache_hierarchy.clusters.l1dcache.WriteReq.mshrMissRate::total     0.000313                       # mshr miss rate for WriteReq accesses (Ratio)
board.cache_hierarchy.clusters.l1dcache.WriteReq.avgMshrMissLatency::processor.cores.core.data 24977.541985                       # average WriteReq mshr miss latency ((Tick/Count))
board.cache_hierarchy.clusters.l1dcache.WriteReq.avgMshrMissLatency::total 24977.541985                       # average WriteReq mshr miss latency ((Tick/Count))
board.cache_hierarchy.clusters.l1dcache.power_state.pwrStateResidencyTicks::UNDEFINED  14971024323                       # Cumulative time (in ticks) in various power states (Tick)
board.cache_hierarchy.clusters.l1dcache.prefetcher.demandMshrMisses        59662                       # demands not covered by prefetchs (Count)
board.cache_hierarchy.clusters.l1dcache.prefetcher.pfIssued        12622                       # number of hwpf issued (Count)
board.cache_hierarchy.clusters.l1dcache.prefetcher.pfUnused          981                       # number of HardPF blocks evicted w/o reference (Count)
board.cache_hierarchy.clusters.l1dcache.prefetcher.pfUseful         2492                       # number of useful prefetch (Count)
board.cache_hierarchy.clusters.l1dcache.prefetcher.pfUsefulButMiss            0                       # number of hit on prefetch but cache block is not in an usable state (Count)
board.cache_hierarchy.clusters.l1dcache.prefetcher.accuracy     0.197433                       # accuracy of the prefetcher (Count)
board.cache_hierarchy.clusters.l1dcache.prefetcher.coverage     0.040094                       # coverage brought by this prefetcher (Count)
board.cache_hierarchy.clusters.l1dcache.prefetcher.pfHitInCache         8493                       # number of prefetches hitting in cache (Count)
board.cache_hierarchy.clusters.l1dcache.prefetcher.pfHitInMSHR          628                       # number of prefetches hitting in a MSHR (Count)
board.cache_hierarchy.clusters.l1dcache.prefetcher.pfHitInWB            0                       # number of prefetches hit in the Write Buffer (Count)
board.cache_hierarchy.clusters.l1dcache.prefetcher.pfLate         9121                       # number of late prefetches (hitting in cache, MSHR or WB) (Count)
board.cache_hierarchy.clusters.l1dcache.prefetcher.pfIdentified        12964                       # number of prefetch candidates identified (Count)
board.cache_hierarchy.clusters.l1dcache.prefetcher.pfBufferHit          287                       # number of redundant prefetches already in prefetch queue (Count)
board.cache_hierarchy.clusters.l1dcache.prefetcher.pfInCache            0                       # number of redundant prefetches already in cache/mshr dropped (Count)
board.cache_hierarchy.clusters.l1dcache.prefetcher.pfRemovedDemand            1                       # number of prefetches dropped due to a demand for the same address (Count)
board.cache_hierarchy.clusters.l1dcache.prefetcher.pfRemovedFull            0                       # number of prefetches dropped due to prefetch queue size (Count)
board.cache_hierarchy.clusters.l1dcache.prefetcher.pfSpanPage          760                       # number of prefetches that crossed the page (Count)
board.cache_hierarchy.clusters.l1dcache.prefetcher.pfUsefulSpanPage          427                       # number of prefetches that is useful and crossed the page (Count)
board.cache_hierarchy.clusters.l1dcache.prefetcher.power_state.pwrStateResidencyTicks::UNDEFINED  14971024323                       # Cumulative time (in ticks) in various power states (Tick)
board.cache_hierarchy.clusters.l1dcache.tags.tagsInUse   510.876607                       # Average ticks per tags in use ((Tick/Count))
board.cache_hierarchy.clusters.l1dcache.tags.totalRefs     14378634                       # Total number of references to valid blocks. (Count)
board.cache_hierarchy.clusters.l1dcache.tags.sampledRefs        63165                       # Sample count of references to valid blocks. (Count)
board.cache_hierarchy.clusters.l1dcache.tags.avgRefs   227.636096                       # Average number of references to valid blocks. ((Count/Count))
board.cache_hierarchy.clusters.l1dcache.tags.warmupTick       185481                       # The tick when the warmup percentage was hit. (Tick)
board.cache_hierarchy.clusters.l1dcache.tags.occupancies::cache_hierarchy.clusters.l1dcache.prefetcher    23.461097                       # Average occupied blocks per tick, per requestor ((Count/Tick))
board.cache_hierarchy.clusters.l1dcache.tags.occupancies::processor.cores.core.data   487.415509                       # Average occupied blocks per tick, per requestor ((Count/Tick))
board.cache_hierarchy.clusters.l1dcache.tags.avgOccs::cache_hierarchy.clusters.l1dcache.prefetcher     0.045822                       # Average percentage of cache occupancy ((Ratio/Tick))
board.cache_hierarchy.clusters.l1dcache.tags.avgOccs::processor.cores.core.data     0.951983                       # Average percentage of cache occupancy ((Ratio/Tick))
board.cache_hierarchy.clusters.l1dcache.tags.avgOccs::total     0.997806                       # Average percentage of cache occupancy ((Ratio/Tick))
board.cache_hierarchy.clusters.l1dcache.tags.occupanciesTaskId::1022          428                       # Occupied blocks per task id (Count)
board.cache_hierarchy.clusters.l1dcache.tags.occupanciesTaskId::1024           84                       # Occupied blocks per task id (Count)
board.cache_hierarchy.clusters.l1dcache.tags.ageTaskId_1022::0           10                       # Occupied blocks per task id, per block age (Count)
board.cache_hierarchy.clusters.l1dcache.tags.ageTaskId_1022::1          418                       # Occupied blocks per task id, per block age (Count)
board.cache_hierarchy.clusters.l1dcache.tags.ageTaskId_1024::0           73                       # Occupied blocks per task id, per block age (Count)
board.cache_hierarchy.clusters.l1dcache.tags.ageTaskId_1024::1            9                       # Occupied blocks per task id, per block age (Count)
board.cache_hierarchy.clusters.l1dcache.tags.ageTaskId_1024::2            1                       # Occupied blocks per task id, per block age (Count)
board.cache_hierarchy.clusters.l1dcache.tags.ageTaskId_1024::4            1                       # Occupied blocks per task id, per block age (Count)
board.cache_hierarchy.clusters.l1dcache.tags.ratioOccsTaskId::1022     0.835938                       # Ratio of occupied blocks and all blocks, per task id (Ratio)
board.cache_hierarchy.clusters.l1dcache.tags.ratioOccsTaskId::1024     0.164062                       # Ratio of occupied blocks and all blocks, per task id (Ratio)
board.cache_hierarchy.clusters.l1dcache.tags.tagAccesses     57565841                       # Number of tag accesses (Count)
board.cache_hierarchy.clusters.l1dcache.tags.dataAccesses     57565841                       # Number of data accesses (Count)
board.cache_hierarchy.clusters.l1dcache.tags.power_state.pwrStateResidencyTicks::UNDEFINED  14971024323                       # Cumulative time (in ticks) in various power states (Tick)
board.cache_hierarchy.clusters.l1icache.demandHits::processor.cores.core.inst      2124275                       # number of demand (read+write) hits (Count)
board.cache_hierarchy.clusters.l1icache.demandHits::total      2124275                       # number of demand (read+write) hits (Count)
board.cache_hierarchy.clusters.l1icache.overallHits::processor.cores.core.inst      2124275                       # number of overall hits (Count)
board.cache_hierarchy.clusters.l1icache.overallHits::total      2124275                       # number of overall hits (Count)
board.cache_hierarchy.clusters.l1icache.demandMisses::processor.cores.core.inst          481                       # number of demand (read+write) misses (Count)
board.cache_hierarchy.clusters.l1icache.demandMisses::total          481                       # number of demand (read+write) misses (Count)
board.cache_hierarchy.clusters.l1icache.overallMisses::processor.cores.core.inst          481                       # number of overall misses (Count)
board.cache_hierarchy.clusters.l1icache.overallMisses::total          481                       # number of overall misses (Count)
board.cache_hierarchy.clusters.l1icache.demandMissLatency::processor.cores.core.inst     44655300                       # number of demand (read+write) miss ticks (Tick)
board.cache_hierarchy.clusters.l1icache.demandMissLatency::total     44655300                       # number of demand (read+write) miss ticks (Tick)
board.cache_hierarchy.clusters.l1icache.overallMissLatency::processor.cores.core.inst     44655300                       # number of overall miss ticks (Tick)
board.cache_hierarchy.clusters.l1icache.overallMissLatency::total     44655300                       # number of overall miss ticks (Tick)
board.cache_hierarchy.clusters.l1icache.demandAccesses::processor.cores.core.inst      2124756                       # number of demand (read+write) accesses (Count)
board.cache_hierarchy.clusters.l1icache.demandAccesses::total      2124756                       # number of demand (read+write) accesses (Count)
board.cache_hierarchy.clusters.l1icache.overallAccesses::processor.cores.core.inst      2124756                       # number of overall (read+write) accesses (Count)
board.cache_hierarchy.clusters.l1icache.overallAccesses::total      2124756                       # number of overall (read+write) accesses (Count)
board.cache_hierarchy.clusters.l1icache.demandMissRate::processor.cores.core.inst     0.000226                       # miss rate for demand accesses (Ratio)
board.cache_hierarchy.clusters.l1icache.demandMissRate::total     0.000226                       # miss rate for demand accesses (Ratio)
board.cache_hierarchy.clusters.l1icache.overallMissRate::processor.cores.core.inst     0.000226                       # miss rate for overall accesses (Ratio)
board.cache_hierarchy.clusters.l1icache.overallMissRate::total     0.000226                       # miss rate for overall accesses (Ratio)
board.cache_hierarchy.clusters.l1icache.demandAvgMissLatency::processor.cores.core.inst 92838.461538                       # average overall miss latency in ticks ((Tick/Count))
board.cache_hierarchy.clusters.l1icache.demandAvgMissLatency::total 92838.461538                       # average overall miss latency in ticks ((Tick/Count))
board.cache_hierarchy.clusters.l1icache.overallAvgMissLatency::processor.cores.core.inst 92838.461538                       # average overall miss latency ((Tick/Count))
board.cache_hierarchy.clusters.l1icache.overallAvgMissLatency::total 92838.461538                       # average overall miss latency ((Tick/Count))
board.cache_hierarchy.clusters.l1icache.blockedCycles::no_mshrs            0                       # number of cycles access was blocked (Cycle)
board.cache_hierarchy.clusters.l1icache.blockedCycles::no_targets            0                       # number of cycles access was blocked (Cycle)
board.cache_hierarchy.clusters.l1icache.blockedCauses::no_mshrs            0                       # number of times access was blocked (Count)
board.cache_hierarchy.clusters.l1icache.blockedCauses::no_targets            0                       # number of times access was blocked (Count)
board.cache_hierarchy.clusters.l1icache.avgBlocked::no_mshrs          nan                       # average number of cycles each access was blocked ((Cycle/Count))
board.cache_hierarchy.clusters.l1icache.avgBlocked::no_targets          nan                       # average number of cycles each access was blocked ((Cycle/Count))
board.cache_hierarchy.clusters.l1icache.writebacks::writebacks           33                       # number of writebacks (Count)
board.cache_hierarchy.clusters.l1icache.writebacks::total           33                       # number of writebacks (Count)
board.cache_hierarchy.clusters.l1icache.demandMshrHits::processor.cores.core.inst           89                       # number of demand (read+write) MSHR hits (Count)
board.cache_hierarchy.clusters.l1icache.demandMshrHits::total           89                       # number of demand (read+write) MSHR hits (Count)
board.cache_hierarchy.clusters.l1icache.overallMshrHits::processor.cores.core.inst           89                       # number of overall MSHR hits (Count)
board.cache_hierarchy.clusters.l1icache.overallMshrHits::total           89                       # number of overall MSHR hits (Count)
board.cache_hierarchy.clusters.l1icache.demandMshrMisses::processor.cores.core.inst          392                       # number of demand (read+write) MSHR misses (Count)
board.cache_hierarchy.clusters.l1icache.demandMshrMisses::total          392                       # number of demand (read+write) MSHR misses (Count)
board.cache_hierarchy.clusters.l1icache.overallMshrMisses::processor.cores.core.inst          392                       # number of overall MSHR misses (Count)
board.cache_hierarchy.clusters.l1icache.overallMshrMisses::total          392                       # number of overall MSHR misses (Count)
board.cache_hierarchy.clusters.l1icache.demandMshrMissLatency::processor.cores.core.inst     37683612                       # number of demand (read+write) MSHR miss ticks (Tick)
board.cache_hierarchy.clusters.l1icache.demandMshrMissLatency::total     37683612                       # number of demand (read+write) MSHR miss ticks (Tick)
board.cache_hierarchy.clusters.l1icache.overallMshrMissLatency::processor.cores.core.inst     37683612                       # number of overall MSHR miss ticks (Tick)
board.cache_hierarchy.clusters.l1icache.overallMshrMissLatency::total     37683612                       # number of overall MSHR miss ticks (Tick)
board.cache_hierarchy.clusters.l1icache.demandMshrMissRate::processor.cores.core.inst     0.000184                       # mshr miss ratio for demand accesses (Ratio)
board.cache_hierarchy.clusters.l1icache.demandMshrMissRate::total     0.000184                       # mshr miss ratio for demand accesses (Ratio)
board.cache_hierarchy.clusters.l1icache.overallMshrMissRate::processor.cores.core.inst     0.000184                       # mshr miss ratio for overall accesses (Ratio)
board.cache_hierarchy.clusters.l1icache.overallMshrMissRate::total     0.000184                       # mshr miss ratio for overall accesses (Ratio)
board.cache_hierarchy.clusters.l1icache.demandAvgMshrMissLatency::processor.cores.core.inst 96131.663265                       # average overall mshr miss latency ((Tick/Count))
board.cache_hierarchy.clusters.l1icache.demandAvgMshrMissLatency::total 96131.663265                       # average overall mshr miss latency ((Tick/Count))
board.cache_hierarchy.clusters.l1icache.overallAvgMshrMissLatency::processor.cores.core.inst 96131.663265                       # average overall mshr miss latency ((Tick/Count))
board.cache_hierarchy.clusters.l1icache.overallAvgMshrMissLatency::total 96131.663265                       # average overall mshr miss latency ((Tick/Count))
board.cache_hierarchy.clusters.l1icache.replacements           33                       # number of replacements (Count)
board.cache_hierarchy.clusters.l1icache.ReadReq.hits::processor.cores.core.inst      2124275                       # number of ReadReq hits (Count)
board.cache_hierarchy.clusters.l1icache.ReadReq.hits::total      2124275                       # number of ReadReq hits (Count)
board.cache_hierarchy.clusters.l1icache.ReadReq.misses::processor.cores.core.inst          481                       # number of ReadReq misses (Count)
board.cache_hierarchy.clusters.l1icache.ReadReq.misses::total          481                       # number of ReadReq misses (Count)
board.cache_hierarchy.clusters.l1icache.ReadReq.missLatency::processor.cores.core.inst     44655300                       # number of ReadReq miss ticks (Tick)
board.cache_hierarchy.clusters.l1icache.ReadReq.missLatency::total     44655300                       # number of ReadReq miss ticks (Tick)
board.cache_hierarchy.clusters.l1icache.ReadReq.accesses::processor.cores.core.inst      2124756                       # number of ReadReq accesses(hits+misses) (Count)
board.cache_hierarchy.clusters.l1icache.ReadReq.accesses::total      2124756                       # number of ReadReq accesses(hits+misses) (Count)
board.cache_hierarchy.clusters.l1icache.ReadReq.missRate::processor.cores.core.inst     0.000226                       # miss rate for ReadReq accesses (Ratio)
board.cache_hierarchy.clusters.l1icache.ReadReq.missRate::total     0.000226                       # miss rate for ReadReq accesses (Ratio)
board.cache_hierarchy.clusters.l1icache.ReadReq.avgMissLatency::processor.cores.core.inst 92838.461538                       # average ReadReq miss latency ((Tick/Count))
board.cache_hierarchy.clusters.l1icache.ReadReq.avgMissLatency::total 92838.461538                       # average ReadReq miss latency ((Tick/Count))
board.cache_hierarchy.clusters.l1icache.ReadReq.mshrHits::processor.cores.core.inst           89                       # number of ReadReq MSHR hits (Count)
board.cache_hierarchy.clusters.l1icache.ReadReq.mshrHits::total           89                       # number of ReadReq MSHR hits (Count)
board.cache_hierarchy.clusters.l1icache.ReadReq.mshrMisses::processor.cores.core.inst          392                       # number of ReadReq MSHR misses (Count)
board.cache_hierarchy.clusters.l1icache.ReadReq.mshrMisses::total          392                       # number of ReadReq MSHR misses (Count)
board.cache_hierarchy.clusters.l1icache.ReadReq.mshrMissLatency::processor.cores.core.inst     37683612                       # number of ReadReq MSHR miss ticks (Tick)
board.cache_hierarchy.clusters.l1icache.ReadReq.mshrMissLatency::total     37683612                       # number of ReadReq MSHR miss ticks (Tick)
board.cache_hierarchy.clusters.l1icache.ReadReq.mshrMissRate::processor.cores.core.inst     0.000184                       # mshr miss rate for ReadReq accesses (Ratio)
board.cache_hierarchy.clusters.l1icache.ReadReq.mshrMissRate::total     0.000184                       # mshr miss rate for ReadReq accesses (Ratio)
board.cache_hierarchy.clusters.l1icache.ReadReq.avgMshrMissLatency::processor.cores.core.inst 96131.663265                       # average ReadReq mshr miss latency ((Tick/Count))
board.cache_hierarchy.clusters.l1icache.ReadReq.avgMshrMissLatency::total 96131.663265                       # average ReadReq mshr miss latency ((Tick/Count))
board.cache_hierarchy.clusters.l1icache.power_state.pwrStateResidencyTicks::UNDEFINED  14971024323                       # Cumulative time (in ticks) in various power states (Tick)
board.cache_hierarchy.clusters.l1icache.prefetcher.demandMshrMisses          392                       # demands not covered by prefetchs (Count)
board.cache_hierarchy.clusters.l1icache.prefetcher.pfIssued            0                       # number of hwpf issued (Count)
board.cache_hierarchy.clusters.l1icache.prefetcher.pfUseful            0                       # number of useful prefetch (Count)
board.cache_hierarchy.clusters.l1icache.prefetcher.pfUsefulButMiss            0                       # number of hit on prefetch but cache block is not in an usable state (Count)
board.cache_hierarchy.clusters.l1icache.prefetcher.accuracy          nan                       # accuracy of the prefetcher (Count)
board.cache_hierarchy.clusters.l1icache.prefetcher.coverage            0                       # coverage brought by this prefetcher (Count)
board.cache_hierarchy.clusters.l1icache.prefetcher.pfHitInCache            0                       # number of prefetches hitting in cache (Count)
board.cache_hierarchy.clusters.l1icache.prefetcher.pfHitInMSHR            0                       # number of prefetches hitting in a MSHR (Count)
board.cache_hierarchy.clusters.l1icache.prefetcher.pfHitInWB            0                       # number of prefetches hit in the Write Buffer (Count)
board.cache_hierarchy.clusters.l1icache.prefetcher.pfLate            0                       # number of late prefetches (hitting in cache, MSHR or WB) (Count)
board.cache_hierarchy.clusters.l1icache.prefetcher.pfIdentified            0                       # number of prefetch candidates identified (Count)
board.cache_hierarchy.clusters.l1icache.prefetcher.pfBufferHit            0                       # number of redundant prefetches already in prefetch queue (Count)
board.cache_hierarchy.clusters.l1icache.prefetcher.pfInCache            0                       # number of redundant prefetches already in cache/mshr dropped (Count)
board.cache_hierarchy.clusters.l1icache.prefetcher.pfRemovedDemand            0                       # number of prefetches dropped due to a demand for the same address (Count)
board.cache_hierarchy.clusters.l1icache.prefetcher.pfRemovedFull            0                       # number of prefetches dropped due to prefetch queue size (Count)
board.cache_hierarchy.clusters.l1icache.prefetcher.pfSpanPage            0                       # number of prefetches that crossed the page (Count)
board.cache_hierarchy.clusters.l1icache.prefetcher.pfUsefulSpanPage            0                       # number of prefetches that is useful and crossed the page (Count)
board.cache_hierarchy.clusters.l1icache.prefetcher.power_state.pwrStateResidencyTicks::UNDEFINED  14971024323                       # Cumulative time (in ticks) in various power states (Tick)
board.cache_hierarchy.clusters.l1icache.tags.tagsInUse   276.767000                       # Average ticks per tags in use ((Tick/Count))
board.cache_hierarchy.clusters.l1icache.tags.totalRefs      2124665                       # Total number of references to valid blocks. (Count)
board.cache_hierarchy.clusters.l1icache.tags.sampledRefs          390                       # Sample count of references to valid blocks. (Count)
board.cache_hierarchy.clusters.l1icache.tags.avgRefs  5447.858974                       # Average number of references to valid blocks. ((Count/Count))
board.cache_hierarchy.clusters.l1icache.tags.warmupTick        90576                       # The tick when the warmup percentage was hit. (Tick)
board.cache_hierarchy.clusters.l1icache.tags.occupancies::processor.cores.core.inst   276.767000                       # Average occupied blocks per tick, per requestor ((Count/Tick))
board.cache_hierarchy.clusters.l1icache.tags.avgOccs::processor.cores.core.inst     0.540561                       # Average percentage of cache occupancy ((Ratio/Tick))
board.cache_hierarchy.clusters.l1icache.tags.avgOccs::total     0.540561                       # Average percentage of cache occupancy ((Ratio/Tick))
board.cache_hierarchy.clusters.l1icache.tags.occupanciesTaskId::1024          357                       # Occupied blocks per task id (Count)
board.cache_hierarchy.clusters.l1icache.tags.ageTaskId_1024::0          101                       # Occupied blocks per task id, per block age (Count)
board.cache_hierarchy.clusters.l1icache.tags.ageTaskId_1024::1            6                       # Occupied blocks per task id, per block age (Count)
board.cache_hierarchy.clusters.l1icache.tags.ageTaskId_1024::4          250                       # Occupied blocks per task id, per block age (Count)
board.cache_hierarchy.clusters.l1icache.tags.ratioOccsTaskId::1024     0.697266                       # Ratio of occupied blocks and all blocks, per task id (Ratio)
board.cache_hierarchy.clusters.l1icache.tags.tagAccesses      8499414                       # Number of tag accesses (Count)
board.cache_hierarchy.clusters.l1icache.tags.dataAccesses      8499414                       # Number of data accesses (Count)
board.cache_hierarchy.clusters.l1icache.tags.power_state.pwrStateResidencyTicks::UNDEFINED  14971024323                       # Cumulative time (in ticks) in various power states (Tick)
board.cache_hierarchy.clusters.l2_xbar.transDist::ReadResp        62899                       # Transaction distribution (Count)
board.cache_hierarchy.clusters.l2_xbar.transDist::WritebackDirty        61955                       # Transaction distribution (Count)
board.cache_hierarchy.clusters.l2_xbar.transDist::WritebackClean           33                       # Transaction distribution (Count)
board.cache_hierarchy.clusters.l2_xbar.transDist::CleanEvict          698                       # Transaction distribution (Count)
board.cache_hierarchy.clusters.l2_xbar.transDist::HardPFReq         1992                       # Transaction distribution (Count)
board.cache_hierarchy.clusters.l2_xbar.transDist::ReadExReq          656                       # Transaction distribution (Count)
board.cache_hierarchy.clusters.l2_xbar.transDist::ReadExResp          656                       # Transaction distribution (Count)
board.cache_hierarchy.clusters.l2_xbar.transDist::ReadSharedReq        62902                       # Transaction distribution (Count)
board.cache_hierarchy.clusters.l2_xbar.pktCount_board.cache_hierarchy.clusters.l1dcache.mem_side_port::board.cache_hierarchy.clusters.l2cache.cpu_side_port       188984                       # Packet count per connected requestor and responder (Count)
board.cache_hierarchy.clusters.l2_xbar.pktCount_board.cache_hierarchy.clusters.l1icache.mem_side_port::board.cache_hierarchy.clusters.l2cache.cpu_side_port          815                       # Packet count per connected requestor and responder (Count)
board.cache_hierarchy.clusters.l2_xbar.pktCount::total       189799                       # Packet count per connected requestor and responder (Count)
board.cache_hierarchy.clusters.l2_xbar.pktSize_board.cache_hierarchy.clusters.l1dcache.mem_side_port::board.cache_hierarchy.clusters.l2cache.cpu_side_port      8007680                       # Cumulative packet size per connected requestor and responder (Byte)
board.cache_hierarchy.clusters.l2_xbar.pktSize_board.cache_hierarchy.clusters.l1icache.mem_side_port::board.cache_hierarchy.clusters.l2cache.cpu_side_port        27072                       # Cumulative packet size per connected requestor and responder (Byte)
board.cache_hierarchy.clusters.l2_xbar.pktSize::total      8034752                       # Cumulative packet size per connected requestor and responder (Byte)
board.cache_hierarchy.clusters.l2_xbar.snoops         1992                       # Total snoops (Count)
board.cache_hierarchy.clusters.l2_xbar.snoopTraffic            0                       # Total snoop traffic (Byte)
board.cache_hierarchy.clusters.l2_xbar.snoopFanout::samples        65550                       # Request fanout histogram (Count)
board.cache_hierarchy.clusters.l2_xbar.snoopFanout::mean            0                       # Request fanout histogram (Count)
board.cache_hierarchy.clusters.l2_xbar.snoopFanout::stdev            0                       # Request fanout histogram (Count)
board.cache_hierarchy.clusters.l2_xbar.snoopFanout::underflows            0      0.00%      0.00% # Request fanout histogram (Count)
board.cache_hierarchy.clusters.l2_xbar.snoopFanout::0        65550    100.00%    100.00% # Request fanout histogram (Count)
board.cache_hierarchy.clusters.l2_xbar.snoopFanout::1            0      0.00%    100.00% # Request fanout histogram (Count)
board.cache_hierarchy.clusters.l2_xbar.snoopFanout::2            0      0.00%    100.00% # Request fanout histogram (Count)
board.cache_hierarchy.clusters.l2_xbar.snoopFanout::3            0      0.00%    100.00% # Request fanout histogram (Count)
board.cache_hierarchy.clusters.l2_xbar.snoopFanout::4            0      0.00%    100.00% # Request fanout histogram (Count)
board.cache_hierarchy.clusters.l2_xbar.snoopFanout::overflows            0      0.00%    100.00% # Request fanout histogram (Count)
board.cache_hierarchy.clusters.l2_xbar.snoopFanout::min_value            0                       # Request fanout histogram (Count)
board.cache_hierarchy.clusters.l2_xbar.snoopFanout::max_value            0                       # Request fanout histogram (Count)
board.cache_hierarchy.clusters.l2_xbar.snoopFanout::total        65550                       # Request fanout histogram (Count)
board.cache_hierarchy.clusters.l2_xbar.power_state.pwrStateResidencyTicks::UNDEFINED  14971024323                       # Cumulative time (in ticks) in various power states (Tick)
board.cache_hierarchy.clusters.l2_xbar.reqLayer0.occupancy     84057868                       # Layer occupancy (ticks) (Tick)
board.cache_hierarchy.clusters.l2_xbar.reqLayer0.utilization          0.0                       # Layer utilization (Ratio)
board.cache_hierarchy.clusters.l2_xbar.respLayer0.occupancy     63101835                       # Layer occupancy (ticks) (Tick)
board.cache_hierarchy.clusters.l2_xbar.respLayer0.utilization          0.0                       # Layer utilization (Ratio)
board.cache_hierarchy.clusters.l2_xbar.respLayer1.occupancy       389610                       # Layer occupancy (ticks) (Tick)
board.cache_hierarchy.clusters.l2_xbar.respLayer1.utilization          0.0                       # Layer utilization (Ratio)
board.cache_hierarchy.clusters.l2_xbar.snoop_filter.totRequests       126244                       # Total number of requests made to the snoop filter. (Count)
board.cache_hierarchy.clusters.l2_xbar.snoop_filter.hitSingleRequests        62686                       # Number of requests hitting in the snoop filter with a single holder of the requested data. (Count)
board.cache_hierarchy.clusters.l2_xbar.snoop_filter.hitMultiRequests            0                       # Number of requests hitting in the snoop filter with multiple (>1) holders of the requested data. (Count)
board.cache_hierarchy.clusters.l2_xbar.snoop_filter.totSnoops            0                       # Total number of snoops made to the snoop filter. (Count)
board.cache_hierarchy.clusters.l2_xbar.snoop_filter.hitSingleSnoops            0                       # Number of snoops hitting in the snoop filter with a single holder of the requested data. (Count)
board.cache_hierarchy.clusters.l2_xbar.snoop_filter.hitMultiSnoops            0                       # Number of snoops hitting in the snoop filter with multiple (>1) holders of the requested data. (Count)
board.cache_hierarchy.clusters.l2cache.demandHits::cache_hierarchy.clusters.l1dcache.prefetcher         3331                       # number of demand (read+write) hits (Count)
board.cache_hierarchy.clusters.l2cache.demandHits::processor.cores.core.inst            3                       # number of demand (read+write) hits (Count)
board.cache_hierarchy.clusters.l2cache.demandHits::processor.cores.core.data        59423                       # number of demand (read+write) hits (Count)
board.cache_hierarchy.clusters.l2cache.demandHits::total        62757                       # number of demand (read+write) hits (Count)
board.cache_hierarchy.clusters.l2cache.overallHits::cache_hierarchy.clusters.l1dcache.prefetcher         3331                       # number of overall hits (Count)
board.cache_hierarchy.clusters.l2cache.overallHits::processor.cores.core.inst            3                       # number of overall hits (Count)
board.cache_hierarchy.clusters.l2cache.overallHits::processor.cores.core.data        59423                       # number of overall hits (Count)
board.cache_hierarchy.clusters.l2cache.overallHits::total        62757                       # number of overall hits (Count)
board.cache_hierarchy.clusters.l2cache.demandMisses::cache_hierarchy.clusters.l1dcache.prefetcher          170                       # number of demand (read+write) misses (Count)
board.cache_hierarchy.clusters.l2cache.demandMisses::processor.cores.core.inst          389                       # number of demand (read+write) misses (Count)
board.cache_hierarchy.clusters.l2cache.demandMisses::processor.cores.core.data          242                       # number of demand (read+write) misses (Count)
board.cache_hierarchy.clusters.l2cache.demandMisses::total          801                       # number of demand (read+write) misses (Count)
board.cache_hierarchy.clusters.l2cache.overallMisses::cache_hierarchy.clusters.l1dcache.prefetcher          170                       # number of overall misses (Count)
board.cache_hierarchy.clusters.l2cache.overallMisses::processor.cores.core.inst          389                       # number of overall misses (Count)
board.cache_hierarchy.clusters.l2cache.overallMisses::processor.cores.core.data          242                       # number of overall misses (Count)
board.cache_hierarchy.clusters.l2cache.overallMisses::total          801                       # number of overall misses (Count)
board.cache_hierarchy.clusters.l2cache.demandMissLatency::cache_hierarchy.clusters.l1dcache.prefetcher     21834079                       # number of demand (read+write) miss ticks (Tick)
board.cache_hierarchy.clusters.l2cache.demandMissLatency::processor.cores.core.inst     37408554                       # number of demand (read+write) miss ticks (Tick)
board.cache_hierarchy.clusters.l2cache.demandMissLatency::processor.cores.core.data     24757884                       # number of demand (read+write) miss ticks (Tick)
board.cache_hierarchy.clusters.l2cache.demandMissLatency::total     84000517                       # number of demand (read+write) miss ticks (Tick)
board.cache_hierarchy.clusters.l2cache.overallMissLatency::cache_hierarchy.clusters.l1dcache.prefetcher     21834079                       # number of overall miss ticks (Tick)
board.cache_hierarchy.clusters.l2cache.overallMissLatency::processor.cores.core.inst     37408554                       # number of overall miss ticks (Tick)
board.cache_hierarchy.clusters.l2cache.overallMissLatency::processor.cores.core.data     24757884                       # number of overall miss ticks (Tick)
board.cache_hierarchy.clusters.l2cache.overallMissLatency::total     84000517                       # number of overall miss ticks (Tick)
board.cache_hierarchy.clusters.l2cache.demandAccesses::cache_hierarchy.clusters.l1dcache.prefetcher         3501                       # number of demand (read+write) accesses (Count)
board.cache_hierarchy.clusters.l2cache.demandAccesses::processor.cores.core.inst          392                       # number of demand (read+write) accesses (Count)
board.cache_hierarchy.clusters.l2cache.demandAccesses::processor.cores.core.data        59665                       # number of demand (read+write) accesses (Count)
board.cache_hierarchy.clusters.l2cache.demandAccesses::total        63558                       # number of demand (read+write) accesses (Count)
board.cache_hierarchy.clusters.l2cache.overallAccesses::cache_hierarchy.clusters.l1dcache.prefetcher         3501                       # number of overall (read+write) accesses (Count)
board.cache_hierarchy.clusters.l2cache.overallAccesses::processor.cores.core.inst          392                       # number of overall (read+write) accesses (Count)
board.cache_hierarchy.clusters.l2cache.overallAccesses::processor.cores.core.data        59665                       # number of overall (read+write) accesses (Count)
board.cache_hierarchy.clusters.l2cache.overallAccesses::total        63558                       # number of overall (read+write) accesses (Count)
board.cache_hierarchy.clusters.l2cache.demandMissRate::cache_hierarchy.clusters.l1dcache.prefetcher     0.048558                       # miss rate for demand accesses (Ratio)
board.cache_hierarchy.clusters.l2cache.demandMissRate::processor.cores.core.inst     0.992347                       # miss rate for demand accesses (Ratio)
board.cache_hierarchy.clusters.l2cache.demandMissRate::processor.cores.core.data     0.004056                       # miss rate for demand accesses (Ratio)
board.cache_hierarchy.clusters.l2cache.demandMissRate::total     0.012603                       # miss rate for demand accesses (Ratio)
board.cache_hierarchy.clusters.l2cache.overallMissRate::cache_hierarchy.clusters.l1dcache.prefetcher     0.048558                       # miss rate for overall accesses (Ratio)
board.cache_hierarchy.clusters.l2cache.overallMissRate::processor.cores.core.inst     0.992347                       # miss rate for overall accesses (Ratio)
board.cache_hierarchy.clusters.l2cache.overallMissRate::processor.cores.core.data     0.004056                       # miss rate for overall accesses (Ratio)
board.cache_hierarchy.clusters.l2cache.overallMissRate::total     0.012603                       # miss rate for overall accesses (Ratio)
board.cache_hierarchy.clusters.l2cache.demandAvgMissLatency::cache_hierarchy.clusters.l1dcache.prefetcher 128435.758824                       # average overall miss latency in ticks ((Tick/Count))
board.cache_hierarchy.clusters.l2cache.demandAvgMissLatency::processor.cores.core.inst 96165.948586                       # average overall miss latency in ticks ((Tick/Count))
board.cache_hierarchy.clusters.l2cache.demandAvgMissLatency::processor.cores.core.data 102305.305785                       # average overall miss latency in ticks ((Tick/Count))
board.cache_hierarchy.clusters.l2cache.demandAvgMissLatency::total 104869.559301                       # average overall miss latency in ticks ((Tick/Count))
board.cache_hierarchy.clusters.l2cache.overallAvgMissLatency::cache_hierarchy.clusters.l1dcache.prefetcher 128435.758824                       # average overall miss latency ((Tick/Count))
board.cache_hierarchy.clusters.l2cache.overallAvgMissLatency::processor.cores.core.inst 96165.948586                       # average overall miss latency ((Tick/Count))
board.cache_hierarchy.clusters.l2cache.overallAvgMissLatency::processor.cores.core.data 102305.305785                       # average overall miss latency ((Tick/Count))
board.cache_hierarchy.clusters.l2cache.overallAvgMissLatency::total 104869.559301                       # average overall miss latency ((Tick/Count))
board.cache_hierarchy.clusters.l2cache.blockedCycles::no_mshrs            0                       # number of cycles access was blocked (Cycle)
board.cache_hierarchy.clusters.l2cache.blockedCycles::no_targets            0                       # number of cycles access was blocked (Cycle)
board.cache_hierarchy.clusters.l2cache.blockedCauses::no_mshrs            0                       # number of times access was blocked (Count)
board.cache_hierarchy.clusters.l2cache.blockedCauses::no_targets            0                       # number of times access was blocked (Count)
board.cache_hierarchy.clusters.l2cache.avgBlocked::no_mshrs          nan                       # average number of cycles each access was blocked ((Cycle/Count))
board.cache_hierarchy.clusters.l2cache.avgBlocked::no_targets          nan                       # average number of cycles each access was blocked ((Cycle/Count))
board.cache_hierarchy.clusters.l2cache.demandMshrHits::cache_hierarchy.clusters.l1dcache.prefetcher           96                       # number of demand (read+write) MSHR hits (Count)
board.cache_hierarchy.clusters.l2cache.demandMshrHits::total           96                       # number of demand (read+write) MSHR hits (Count)
board.cache_hierarchy.clusters.l2cache.overallMshrHits::cache_hierarchy.clusters.l1dcache.prefetcher           96                       # number of overall MSHR hits (Count)
board.cache_hierarchy.clusters.l2cache.overallMshrHits::total           96                       # number of overall MSHR hits (Count)
board.cache_hierarchy.clusters.l2cache.demandMshrMisses::cache_hierarchy.clusters.l1dcache.prefetcher           74                       # number of demand (read+write) MSHR misses (Count)
board.cache_hierarchy.clusters.l2cache.demandMshrMisses::processor.cores.core.inst          389                       # number of demand (read+write) MSHR misses (Count)
board.cache_hierarchy.clusters.l2cache.demandMshrMisses::processor.cores.core.data          242                       # number of demand (read+write) MSHR misses (Count)
board.cache_hierarchy.clusters.l2cache.demandMshrMisses::total          705                       # number of demand (read+write) MSHR misses (Count)
board.cache_hierarchy.clusters.l2cache.overallMshrMisses::cache_hierarchy.clusters.l1dcache.prefetcher           74                       # number of overall MSHR misses (Count)
board.cache_hierarchy.clusters.l2cache.overallMshrMisses::cache_hierarchy.clusters.l2cache.prefetcher         1802                       # number of overall MSHR misses (Count)
board.cache_hierarchy.clusters.l2cache.overallMshrMisses::processor.cores.core.inst          389                       # number of overall MSHR misses (Count)
board.cache_hierarchy.clusters.l2cache.overallMshrMisses::processor.cores.core.data          242                       # number of overall MSHR misses (Count)
board.cache_hierarchy.clusters.l2cache.overallMshrMisses::total         2507                       # number of overall MSHR misses (Count)
board.cache_hierarchy.clusters.l2cache.demandMshrMissLatency::cache_hierarchy.clusters.l1dcache.prefetcher     10876434                       # number of demand (read+write) MSHR miss ticks (Tick)
board.cache_hierarchy.clusters.l2cache.demandMshrMissLatency::processor.cores.core.inst     37279683                       # number of demand (read+write) MSHR miss ticks (Tick)
board.cache_hierarchy.clusters.l2cache.demandMshrMissLatency::processor.cores.core.data     24677631                       # number of demand (read+write) MSHR miss ticks (Tick)
board.cache_hierarchy.clusters.l2cache.demandMshrMissLatency::total     72833748                       # number of demand (read+write) MSHR miss ticks (Tick)
board.cache_hierarchy.clusters.l2cache.overallMshrMissLatency::cache_hierarchy.clusters.l1dcache.prefetcher     10876434                       # number of overall MSHR miss ticks (Tick)
board.cache_hierarchy.clusters.l2cache.overallMshrMissLatency::cache_hierarchy.clusters.l2cache.prefetcher    176422547                       # number of overall MSHR miss ticks (Tick)
board.cache_hierarchy.clusters.l2cache.overallMshrMissLatency::processor.cores.core.inst     37279683                       # number of overall MSHR miss ticks (Tick)
board.cache_hierarchy.clusters.l2cache.overallMshrMissLatency::processor.cores.core.data     24677631                       # number of overall MSHR miss ticks (Tick)
board.cache_hierarchy.clusters.l2cache.overallMshrMissLatency::total    249256295                       # number of overall MSHR miss ticks (Tick)
board.cache_hierarchy.clusters.l2cache.demandMshrMissRate::cache_hierarchy.clusters.l1dcache.prefetcher     0.021137                       # mshr miss ratio for demand accesses (Ratio)
board.cache_hierarchy.clusters.l2cache.demandMshrMissRate::processor.cores.core.inst     0.992347                       # mshr miss ratio for demand accesses (Ratio)
board.cache_hierarchy.clusters.l2cache.demandMshrMissRate::processor.cores.core.data     0.004056                       # mshr miss ratio for demand accesses (Ratio)
board.cache_hierarchy.clusters.l2cache.demandMshrMissRate::total     0.011092                       # mshr miss ratio for demand accesses (Ratio)
board.cache_hierarchy.clusters.l2cache.overallMshrMissRate::cache_hierarchy.clusters.l1dcache.prefetcher     0.021137                       # mshr miss ratio for overall accesses (Ratio)
board.cache_hierarchy.clusters.l2cache.overallMshrMissRate::cache_hierarchy.clusters.l2cache.prefetcher          inf                       # mshr miss ratio for overall accesses (Ratio)
board.cache_hierarchy.clusters.l2cache.overallMshrMissRate::processor.cores.core.inst     0.992347                       # mshr miss ratio for overall accesses (Ratio)
board.cache_hierarchy.clusters.l2cache.overallMshrMissRate::processor.cores.core.data     0.004056                       # mshr miss ratio for overall accesses (Ratio)
board.cache_hierarchy.clusters.l2cache.overallMshrMissRate::total     0.039444                       # mshr miss ratio for overall accesses (Ratio)
board.cache_hierarchy.clusters.l2cache.demandAvgMshrMissLatency::cache_hierarchy.clusters.l1dcache.prefetcher 146978.837838                       # average overall mshr miss latency ((Tick/Count))
board.cache_hierarchy.clusters.l2cache.demandAvgMshrMissLatency::processor.cores.core.inst 95834.660668                       # average overall mshr miss latency ((Tick/Count))
board.cache_hierarchy.clusters.l2cache.demandAvgMshrMissLatency::processor.cores.core.data 101973.681818                       # average overall mshr miss latency ((Tick/Count))
board.cache_hierarchy.clusters.l2cache.demandAvgMshrMissLatency::total 103310.280851                       # average overall mshr miss latency ((Tick/Count))
board.cache_hierarchy.clusters.l2cache.overallAvgMshrMissLatency::cache_hierarchy.clusters.l1dcache.prefetcher 146978.837838                       # average overall mshr miss latency ((Tick/Count))
board.cache_hierarchy.clusters.l2cache.overallAvgMshrMissLatency::cache_hierarchy.clusters.l2cache.prefetcher 97903.744173                       # average overall mshr miss latency ((Tick/Count))
board.cache_hierarchy.clusters.l2cache.overallAvgMshrMissLatency::processor.cores.core.inst 95834.660668                       # average overall mshr miss latency ((Tick/Count))
board.cache_hierarchy.clusters.l2cache.overallAvgMshrMissLatency::processor.cores.core.data 101973.681818                       # average overall mshr miss latency ((Tick/Count))
board.cache_hierarchy.clusters.l2cache.overallAvgMshrMissLatency::total 99424.130435                       # average overall mshr miss latency ((Tick/Count))
board.cache_hierarchy.clusters.l2cache.replacements            0                       # number of replacements (Count)
board.cache_hierarchy.clusters.l2cache.HardPFReq.mshrMisses::cache_hierarchy.clusters.l2cache.prefetcher         1802                       # number of HardPFReq MSHR misses (Count)
board.cache_hierarchy.clusters.l2cache.HardPFReq.mshrMisses::total         1802                       # number of HardPFReq MSHR misses (Count)
board.cache_hierarchy.clusters.l2cache.HardPFReq.mshrMissLatency::cache_hierarchy.clusters.l2cache.prefetcher    176422547                       # number of HardPFReq MSHR miss ticks (Tick)
board.cache_hierarchy.clusters.l2cache.HardPFReq.mshrMissLatency::total    176422547                       # number of HardPFReq MSHR miss ticks (Tick)
board.cache_hierarchy.clusters.l2cache.HardPFReq.mshrMissRate::cache_hierarchy.clusters.l2cache.prefetcher          inf                       # mshr miss rate for HardPFReq accesses (Ratio)
board.cache_hierarchy.clusters.l2cache.HardPFReq.mshrMissRate::total          inf                       # mshr miss rate for HardPFReq accesses (Ratio)
board.cache_hierarchy.clusters.l2cache.HardPFReq.avgMshrMissLatency::cache_hierarchy.clusters.l2cache.prefetcher 97903.744173                       # average HardPFReq mshr miss latency ((Tick/Count))
board.cache_hierarchy.clusters.l2cache.HardPFReq.avgMshrMissLatency::total 97903.744173                       # average HardPFReq mshr miss latency ((Tick/Count))
board.cache_hierarchy.clusters.l2cache.ReadExReq.hits::processor.cores.core.data          526                       # number of ReadExReq hits (Count)
board.cache_hierarchy.clusters.l2cache.ReadExReq.hits::total          526                       # number of ReadExReq hits (Count)
board.cache_hierarchy.clusters.l2cache.ReadExReq.misses::processor.cores.core.data          130                       # number of ReadExReq misses (Count)
board.cache_hierarchy.clusters.l2cache.ReadExReq.misses::total          130                       # number of ReadExReq misses (Count)
board.cache_hierarchy.clusters.l2cache.ReadExReq.missLatency::processor.cores.core.data     14110542                       # number of ReadExReq miss ticks (Tick)
board.cache_hierarchy.clusters.l2cache.ReadExReq.missLatency::total     14110542                       # number of ReadExReq miss ticks (Tick)
board.cache_hierarchy.clusters.l2cache.ReadExReq.accesses::processor.cores.core.data          656                       # number of ReadExReq accesses(hits+misses) (Count)
board.cache_hierarchy.clusters.l2cache.ReadExReq.accesses::total          656                       # number of ReadExReq accesses(hits+misses) (Count)
board.cache_hierarchy.clusters.l2cache.ReadExReq.missRate::processor.cores.core.data     0.198171                       # miss rate for ReadExReq accesses (Ratio)
board.cache_hierarchy.clusters.l2cache.ReadExReq.missRate::total     0.198171                       # miss rate for ReadExReq accesses (Ratio)
board.cache_hierarchy.clusters.l2cache.ReadExReq.avgMissLatency::processor.cores.core.data 108542.630769                       # average ReadExReq miss latency ((Tick/Count))
board.cache_hierarchy.clusters.l2cache.ReadExReq.avgMissLatency::total 108542.630769                       # average ReadExReq miss latency ((Tick/Count))
board.cache_hierarchy.clusters.l2cache.ReadExReq.mshrMisses::processor.cores.core.data          130                       # number of ReadExReq MSHR misses (Count)
board.cache_hierarchy.clusters.l2cache.ReadExReq.mshrMisses::total          130                       # number of ReadExReq MSHR misses (Count)
board.cache_hierarchy.clusters.l2cache.ReadExReq.mshrMissLatency::processor.cores.core.data     14067252                       # number of ReadExReq MSHR miss ticks (Tick)
[...]
board.processor.cores.core.decode.blockedCycles     23677034                       # Number of cycles decode is blocked (Cycle)
board.processor.cores.core.decode.runCycles      6668246                       # Number of cycles decode is running (Cycle)
board.processor.cores.core.decode.unblockCycles     10342695                       # Number of cycles decode is unblocking (Cycle)
board.processor.cores.core.decode.squashCycles        10877                       # Number of cycles decode is squashing (Cycle)
board.processor.cores.core.decode.branchResolved      1052049                       # Number of times decode resolved a branch (Count)
board.processor.cores.core.decode.branchMispred          304                       # Number of times decode detected a branch misprediction (Count)
board.processor.cores.core.decode.decodedInsts     34020441                       # Number of instructions handled by decode (Count)
board.processor.cores.core.decode.squashedInsts          457                       # Number of squashed instructions handled by decode (Count)
board.processor.cores.core.executeStats0.numInsts     33966494                       # Number of executed instructions (Count)
board.processor.cores.core.executeStats0.numNop            0                       # Number of nop insts executed (Count)
board.processor.cores.core.executeStats0.numBranches      1053073                       # Number of branches executed (Count)
board.processor.cores.core.executeStats0.numLoadInsts     13324035                       # Number of load instructions executed (Count)
board.processor.cores.core.executeStats0.numStoreInsts      2092532                       # Number of stores executed (Count)
board.processor.cores.core.executeStats0.instRate     0.755516                       # Inst execution rate ((Count/Cycle))
board.processor.cores.core.executeStats0.numFpRegReads           12                       # Number of times the floating registers were read (Count)
board.processor.cores.core.executeStats0.numFpRegWrites            0                       # Number of times the floating registers were written (Count)
board.processor.cores.core.executeStats0.numIntRegReads     45228903                       # Number of times the integer registers were read (Count)
board.processor.cores.core.executeStats0.numIntRegWrites     30820768                       # Number of times the integer registers were written (Count)
board.processor.cores.core.executeStats0.numMemRefs     15416567                       # Number of memory refs (Count)
board.processor.cores.core.executeStats0.numMiscRegReads           26                       # Number of times the Misc registers were read (Count)
board.processor.cores.core.executeStats0.numVecAluAccesses            0                       # Number of vector alu accesses (Count)
board.processor.cores.core.executeStats0.numDiscardedOps            0                       # Number of ops (including micro ops) which were discarded before commit (Count)
board.processor.cores.core.fetch.predictedBranches      1062682                       # Number of branches that fetch has predicted taken (Count)
board.processor.cores.core.fetch.cycles      44850204                       # Number of cycles fetch has run and was not squashing or blocked (Cycle)
board.processor.cores.core.fetch.squashCycles        22348                       # Number of cycles fetch has spent squashing (Cycle)
board.processor.cores.core.fetch.cacheLines      2124756                       # Number of cache lines fetched (Count)
board.processor.cores.core.fetch.icacheSquashes          194                       # Number of outstanding Icache misses that were squashed (Count)
board.processor.cores.core.fetch.nisnDist::samples     44881606                       # Number of instructions fetched each cycle (Total) (Count)
board.processor.cores.core.fetch.nisnDist::mean     0.765522                       # Number of instructions fetched each cycle (Total) (Count)
board.processor.cores.core.fetch.nisnDist::stdev     0.948198                       # Number of instructions fetched each cycle (Total) (Count)
board.processor.cores.core.fetch.nisnDist::underflows            0      0.00%      0.00% # Number of instructions fetched each cycle (Total) (Count)
board.processor.cores.core.fetch.nisnDist::0     26671737     59.43%     59.43% # Number of instructions fetched each cycle (Total) (Count)
board.processor.cores.core.fetch.nisnDist::1      2061894      4.59%     64.02% # Number of instructions fetched each cycle (Total) (Count)
board.processor.cores.core.fetch.nisnDist::2     16147975     35.98%    100.00% # Number of instructions fetched each cycle (Total) (Count)
board.processor.cores.core.fetch.nisnDist::overflows            0      0.00%    100.00% # Number of instructions fetched each cycle (Total) (Count)
board.processor.cores.core.fetch.nisnDist::min_value            0                       # Number of instructions fetched each cycle (Total) (Count)
board.processor.cores.core.fetch.nisnDist::max_value            2                       # Number of instructions fetched each cycle (Total) (Count)
board.processor.cores.core.fetch.nisnDist::total     44881606                       # Number of instructions fetched each cycle (Total) (Count)
board.processor.cores.core.fetchStats0.numInsts     34357815                       # Number of instructions fetched (thread level) (Count)
board.processor.cores.core.fetchStats0.numOps            0                       # Number of ops (including micro ops) fetched (thread level) (Count)
board.processor.cores.core.fetchStats0.fetchRate     0.764220                       # Number of inst fetches per cycle ((Count/Cycle))
board.processor.cores.core.fetchStats0.numBranches      1065339                       # Number of branches fetched (Count)
board.processor.cores.core.fetchStats0.branchRate     0.023696                       # Number of branch fetches per cycle (Ratio)
board.processor.cores.core.fetchStats0.icacheStallCycles        20228                       # ICache total stall cycles (Cycle)
board.processor.cores.core.fetchStats0.numFetchSuspends            0                       # Number of times Execute suspended instruction fetching (Count)
board.processor.cores.core.iew.idleCycles            0                       # Number of cycles IEW is idle (Cycle)
board.processor.cores.core.iew.squashCycles        10877                       # Number of cycles IEW is squashing (Cycle)
board.processor.cores.core.iew.blockCycles           17                       # Number of cycles IEW is blocking (Cycle)
board.processor.cores.core.iew.unblockCycles            0                       # Number of cycles IEW is unblocking (Cycle)
board.processor.cores.core.iew.dispatchedInsts     33977741                       # Number of instructions dispatched to IQ (Count)
board.processor.cores.core.iew.dispSquashedInsts        10768                       # Number of squashed instructions skipped by dispatch (Count)
board.processor.cores.core.iew.dispLoadInsts     13324419                       # Number of dispatched load instructions (Count)
board.processor.cores.core.iew.dispStoreInsts      2092643                       # Number of dispatched store instructions (Count)
board.processor.cores.core.iew.dispNonSpecInsts           64                       # Number of dispatched non-speculative instructions (Count)
board.processor.cores.core.iew.iqFullEvents            0                       # Number of times the IQ has become full, causing a stall (Count)
board.processor.cores.core.iew.lsqFullEvents            0                       # Number of times the LSQ has become full, causing a stall (Count)
board.processor.cores.core.iew.memOrderViolationEvents           52                       # Number of memory order violations (Count)
board.processor.cores.core.iew.predictedTakenIncorrect        10402                       # Number of branches that were predicted taken incorrectly (Count)
board.processor.cores.core.iew.predictedNotTakenIncorrect          441                       # Number of branches that were predicted not taken incorrectly (Count)
board.processor.cores.core.iew.branchMispredicts        10843                       # Number of branch mispredicts detected at execute (Count)
board.processor.cores.core.iew.instsToCommit     33966199                       # Cumulative count of insts sent to commit (Count)
board.processor.cores.core.iew.writebackCount     33966129                       # Cumulative count of insts written-back (Count)
board.processor.cores.core.iew.producerInst     24129958                       # Number of instructions producing a value (Count)
board.processor.cores.core.iew.consumerInst     24130879                       # Number of instructions consuming a value (Count)
board.processor.cores.core.iew.wbRate        0.755507                       # Insts written-back per cycle ((Count/Cycle))
board.processor.cores.core.iew.wbFanout      0.999962                       # Average fanout of values written-back ((Count/Count))
board.processor.cores.core.lsq0.forwLoads      1040608                       # Number of loads that had data forwarded from stores (Count)
board.processor.cores.core.lsq0.squashedLoads        11062                       # Number of loads squashed (Count)
board.processor.cores.core.lsq0.ignoredResponses            2                       # Number of memory responses ignored because the instruction is squashed (Count)
board.processor.cores.core.lsq0.memOrderViolation           52                       # Number of memory ordering violations (Count)
board.processor.cores.core.lsq0.squashedStores          387                       # Number of stores squashed (Count)
board.processor.cores.core.lsq0.rescheduledLoads            1                       # Number of loads that were rescheduled (Count)
board.processor.cores.core.lsq0.blockedByCache            0                       # Number of times an access to memory failed due to the cache being blocked (Count)
board.processor.cores.core.lsq0.loadToUse::samples     13313357                       # Distribution of cycle latency between the first time a load is issued and its completion (Unspecified)
board.processor.cores.core.lsq0.loadToUse::mean     2.212082                       # Distribution of cycle latency between the first time a load is issued and its completion (Unspecified)
board.processor.cores.core.lsq0.loadToUse::stdev     1.308319                       # Distribution of cycle latency between the first time a load is issued and its completion (Unspecified)
board.processor.cores.core.lsq0.loadToUse::0-9     13254329     99.56%     99.56% # Distribution of cycle latency between the first time a load is issued and its completion (Unspecified)
board.processor.cores.core.lsq0.loadToUse::10-19        58893      0.44%    100.00% # Distribution of cycle latency between the first time a load is issued and its completion (Unspecified)
board.processor.cores.core.lsq0.loadToUse::20-29            2      0.00%    100.00% # Distribution of cycle latency between the first time a load is issued and its completion (Unspecified)
board.processor.cores.core.lsq0.loadToUse::30-39            1      0.00%    100.00% # Distribution of cycle latency between the first time a load is issued and its completion (Unspecified)
board.processor.cores.core.lsq0.loadToUse::150-159            1      0.00%    100.00% # Distribution of cycle latency between the first time a load is issued and its completion (Unspecified)
board.processor.cores.core.lsq0.loadToUse::180-189            1      0.00%    100.00% # Distribution of cycle latency between the first time a load is issued and its completion (Unspecified)
board.processor.cores.core.lsq0.loadToUse::230-239            1      0.00%    100.00% # Distribution of cycle latency between the first time a load is issued and its completion (Unspecified)
board.processor.cores.core.lsq0.loadToUse::240-249            1      0.00%    100.00% # Distribution of cycle latency between the first time a load is issued and its completion (Unspecified)
board.processor.cores.core.lsq0.loadToUse::260-269            4      0.00%    100.00% # Distribution of cycle latency between the first time a load is issued and its completion (Unspecified)
board.processor.cores.core.lsq0.loadToUse::270-279          112      0.00%    100.00% # Distribution of cycle latency between the first time a load is issued and its completion (Unspecified)
board.processor.cores.core.lsq0.loadToUse::280-289            1      0.00%    100.00% # Distribution of cycle latency between the first time a load is issued and its completion (Unspecified)
board.processor.cores.core.lsq0.loadToUse::overflows           11      0.00%    100.00% # Distribution of cycle latency between the first time a load is issued and its completion (Unspecified)
board.processor.cores.core.lsq0.loadToUse::min_value            2                       # Distribution of cycle latency between the first time a load is issued and its completion (Unspecified)
board.processor.cores.core.lsq0.loadToUse::max_value          841                       # Distribution of cycle latency between the first time a load is issued and its completion (Unspecified)
board.processor.cores.core.lsq0.loadToUse::total     13313357                       # Distribution of cycle latency between the first time a load is issued and its completion (Unspecified)
board.processor.cores.core.mmu.dtb.readHits            0                       # read hits (Count)
board.processor.cores.core.mmu.dtb.readMisses            0                       # read misses (Count)
board.processor.cores.core.mmu.dtb.readAccesses            0                       # read accesses (Count)
board.processor.cores.core.mmu.dtb.writeHits            0                       # write hits (Count)
board.processor.cores.core.mmu.dtb.writeMisses            0                       # write misses (Count)
board.processor.cores.core.mmu.dtb.writeAccesses            0                       # write accesses (Count)
board.processor.cores.core.mmu.dtb.hits             0                       # Total TLB (read and write) hits (Count)
board.processor.cores.core.mmu.dtb.misses            0                       # Total TLB (read and write) misses (Count)
board.processor.cores.core.mmu.dtb.accesses            0                       # Total TLB (read and write) accesses (Count)
board.processor.cores.core.mmu.dtb.walker.num_4kb_walks            0                       # Completed page walks with 4KB pages (Count)
board.processor.cores.core.mmu.dtb.walker.num_2mb_walks            0                       # Completed page walks with 2MB pages (Count)
board.processor.cores.core.mmu.dtb.walker.power_state.pwrStateResidencyTicks::UNDEFINED  14971024323                       # Cumulative time (in ticks) in various power states (Tick)
board.processor.cores.core.mmu.itb.readHits            0                       # read hits (Count)
board.processor.cores.core.mmu.itb.readMisses            0                       # read misses (Count)
board.processor.cores.core.mmu.itb.readAccesses            0                       # read accesses (Count)
board.processor.cores.core.mmu.itb.writeHits            0                       # write hits (Count)
board.processor.cores.core.mmu.itb.writeMisses            0                       # write misses (Count)
board.processor.cores.core.mmu.itb.writeAccesses            0                       # write accesses (Count)
board.processor.cores.core.mmu.itb.hits             0                       # Total TLB (read and write) hits (Count)
board.processor.cores.core.mmu.itb.misses            0                       # Total TLB (read and write) misses (Count)
board.processor.cores.core.mmu.itb.accesses            0                       # Total TLB (read and write) accesses (Count)
board.processor.cores.core.mmu.itb.walker.num_4kb_walks            0                       # Completed page walks with 4KB pages (Count)
board.processor.cores.core.mmu.itb.walker.num_2mb_walks            0                       # Completed page walks with 2MB pages (Count)
board.processor.cores.core.mmu.itb.walker.power_state.pwrStateResidencyTicks::UNDEFINED  14971024323                       # Cumulative time (in ticks) in various power states (Tick)
board.processor.cores.core.power_state.pwrStateResidencyTicks::ON  14971024323                       # Cumulative time (in ticks) in various power states (Tick)
board.processor.cores.core.rename.squashCycles        10877                       # Number of cycles rename is squashing (Cycle)
board.processor.cores.core.rename.idleCycles      8759634                       # Number of cycles rename is idle (Cycle)
board.processor.cores.core.rename.blockCycles           52                       # Number of cycles rename is blocking (Cycle)
board.processor.cores.core.rename.serializeStallCycles         3205                       # count of cycles rename stalled for serializing inst (Cycle)
board.processor.cores.core.rename.runCycles     12434060                       # Number of cycles rename is running (Cycle)
board.processor.cores.core.rename.unblockCycles     23673778                       # Number of cycles rename is unblocking (Cycle)
board.processor.cores.core.rename.renamedInsts     33989105                       # Number of instructions processed by rename (Count)
board.processor.cores.core.rename.SQFullEvents         2244                       # Number of times rename has blocked due to SQ full (Count)
board.processor.cores.core.rename.fullRegistersEvents     21205504                       # Number of times there has been no free registers (Count)
board.processor.cores.core.rename.renamedOperands     30843181                       # Number of destination operands rename has renamed (Count)
board.processor.cores.core.rename.lookups     45272908                       # Number of register rename lookups that rename has made (Count)
board.processor.cores.core.rename.intLookups     45251861                       # Number of integer rename lookups (Count)
board.processor.cores.core.rename.fpLookups           12                       # Number of floating rename lookups (Count)
board.processor.cores.core.rename.committedMaps     30809748                       # Number of HB maps that are committed (Count)
board.processor.cores.core.rename.undoneMaps        33433                       # Number of HB maps that are undone due to squashing (Count)
board.processor.cores.core.rename.serializing           31                       # count of serializing insts renamed (Count)
board.processor.cores.core.rename.tempSerializing           31                       # count of temporary serializing insts renamed (Count)
board.processor.cores.core.rename.skidInsts     18378922                       # count of insts added to the skid buffer (Count)
board.processor.cores.core.rob.reads         74687505                       # The number of ROB reads (Count)
board.processor.cores.core.rob.writes        67966344                       # The number of ROB writes (Count)
board.processor.cores.core.thread_0.numInsts     33954546                       # Number of Instructions committed (Count)
board.processor.cores.core.thread_0.numOps     33954560                       # Number of Ops committed (Count)
board.processor.cores.core.thread_0.numMemRefs            0                       # Number of Memory References (Count)
board.processor.cores.core.workload.numSyscalls           14                       # Number of system calls (Count)
board.workload.inst.arm                             0                       # number of arm instructions executed (Count)
board.workload.inst.quiesce                         0                       # number of quiesce instructions executed (Count)

---------- End Simulation Statistics   ----------
