
---------- Begin Simulation Statistics ----------
simSeconds                                   0.004051                       # Number of seconds simulated (Second)
simTicks                                   4050613665                       # Number of ticks simulated (Tick)
finalTick                                  4050613665                       # Number of ticks from beginning of simulation (restored from checkpoints and never reset) (Tick)
simFreq                                  1000000000000                       # The number of ticks per simulated second ((Tick/Second))
hostSeconds                                     97.75                       # Real time elapsed on the host (Second)
hostTickRate                                 41438978                       # The number of ticks simulated per host second (ticks/s) ((Tick/Second))
hostMemory                                    2363640                       # Number of bytes of host memory used (Byte)
simInsts                                     13703225                       # Number of instructions simulated (Count)
simOps                                       13776858                       # Number of ops (including micro ops) simulated (Count)
hostInstRate                                   140188                       # Simulator instruction rate (inst/s) ((Count/Second))
hostOpRate                                     140941                       # Simulator op (including micro ops) rate (op/s) ((Count/Second))
board.cache_hierarchy.clusters.dptw_cache.blockedCycles::no_mshrs            0                       # number of cycles access was blocked (Cycle)
board.cache_hierarchy.clusters.dptw_cache.blockedCycles::no_targets            0                       # number of cycles access was blocked (Cycle)
board.cache_hierarchy.clusters.dptw_cache.blockedCauses::no_mshrs            0                       # number of times access was blocked (Count)
board.cache_hierarchy.clusters.dptw_cache.blockedCauses::no_targets            0                       # number of times access was blocked (Count)
board.cache_hierarchy.clusters.dptw_cache.avgBlocked::no_mshrs          nan                       # average number of cycles each access was blocked ((Cycle/Count))
board.cache_hierarchy.clusters.dptw_cache.avgBlocked::no_targets          nan                       # average number of cycles each access was blocked ((Cycle/Count))
board.cache_hierarchy.clusters.dptw_cache.replacements            0                       # number of replacements (Count)
board.cache_hierarchy.clusters.dptw_cache.power_state.pwrStateResidencyTicks::UNDEFINED   4050613665                       # Cumulative time (in ticks) in various power states (Tick)
board.cache_hierarchy.clusters.dptw_cache.tags.tagsInUse            0                       # Average ticks per tags in use ((Tick/Count))
board.cache_hierarchy.clusters.dptw_cache.tags.totalRefs            0                       # Total number of references to valid blocks. (Count)
board.cache_hierarchy.clusters.dptw_cache.tags.sampledRefs            0                       # Sample count of references to valid blocks. (Count)
board.cache_hierarchy.clusters.dptw_cache.tags.avgRefs          nan                       # Average number of references to valid blocks. ((Count/Count))
board.cache_hierarchy.clusters.dptw_cache.tags.warmupTick            0                       # The tick when the warmup percentage was hit. (Tick)
board.cache_hierarchy.clusters.dptw_cache.tags.tagAccesses            0                       # Number of tag accesses (Count)
board.cache_hierarchy.clusters.dptw_cache.tags.dataAccesses            0                       # Number of data accesses (Count)
board.cache_hierarchy.clusters.dptw_cache.tags.power_state.pwrStateResidencyTicks::UNDEFINED   4050613665                       # Cumulative time (in ticks) in various power states (Tick)
board.cache_hierarchy.clusters.iptw_cache.blockedCycles::no_mshrs            0                       # number of cycles access was blocked (Cycle)
board.cache_hierarchy.clusters.iptw_cache.blockedCycles::no_targets            0                       # number of cycles access was blocked (Cycle)
board.cache_hierarchy.clusters.iptw_cache.blockedCauses::no_mshrs            0                       # number of times access was blocked (Count)
board.cache_hierarchy.clusters.iptw_cache.blockedCauses::no_targets            0                       # number of times access was blocked (Count)
board.cache_hierarchy.clusters.iptw_cache.avgBlocked::no_mshrs          nan                       # average number of cycles each access was blocked ((Cycle/Count))
board.cache_hierarchy.clusters.iptw_cache.avgBlocked::no_targets          nan                       # average number of cycles each access was blocked ((Cycle/Count))
board.cache_hierarchy.clusters.iptw_cache.replacements            0                       # number of replacements (Count)
board.cache_hierarchy.clusters.iptw_cache.power_state.pwrStateResidencyTicks::UNDEFINED   4050613665                       # Cumulative time (in ticks) in various power states (Tick)
board.cache_hierarchy.clusters.iptw_cache.tags.tagsInUse            0                       # Average ticks per tags in use ((Tick/Count))
board.cache_hierarchy.clusters.iptw_cache.tags.totalRefs            0                       # Total number of references to valid blocks. (Count)
board.cache_hierarchy.clusters.iptw_cache.tags.sampledRefs            0                       # Sample count of references to valid blocks. (Count)
board.cache_hierarchy.clusters.iptw_cache.tags.avgRefs          nan                       # Average number of references to valid blocks. ((Count/Count))
board.cache_hierarchy.clusters.iptw_cache.tags.warmupTick            0                       # The tick when the warmup percentage was hit. (Tick)
board.cache_hierarchy.clusters.iptw_cache.tags.tagAccesses            0                       # Number of tag accesses (Count)
board.cache_hierarchy.clusters.iptw_cache.tags.dataAccesses            0                       # Number of data accesses (Count)
board.cache_hierarchy.clusters.iptw_cache.tags.power_state.pwrStateResidencyTicks::UNDEFINED   4050613665                       # Cumulative time (in ticks) in various power states (Tick)
board.cache_hierarchy.clusters.l1dcache.demandHits::processor.cores.core.data      3601387                       # number of demand (read+write) hits (Count)
board.cache_hierarchy.clusters.l1dcache.demandHits::total      3601387                       # number of demand (read+write) hits (Count)
board.cache_hierarchy.clusters.l1dcache.overallHits::processor.cores.core.data      3601387                       # number of overall hits (Count)
board.cache_hierarchy.clusters.l1dcache.overallHits::total      3601387                       # number of overall hits (Count)
board.cache_hierarchy.clusters.l1dcache.demandMisses::processor.cores.core.data        48170                       # number of demand (read+write) misses (Count)
board.cache_hierarchy.clusters.l1dcache.demandMisses::total        48170                       # number of demand (read+write) misses (Count)
board.cache_hierarchy.clusters.l1dcache.overallMisses::processor.cores.core.data        48170                       # number of overall misses (Count)
board.cache_hierarchy.clusters.l1dcache.overallMisses::total        48170                       # number of overall misses (Count)
board.cache_hierarchy.clusters.l1dcache.demandMissLatency::processor.cores.core.data   1077662258                       # number of demand (read+write) miss ticks (Tick)
board.cache_hierarchy.clusters.l1dcache.demandMissLatency::total   1077662258                       # number of demand (read+write) miss ticks (Tick)
board.cache_hierarchy.clusters.l1dcache.overallMissLatency::processor.cores.core.data   1077662258                       # number of overall miss ticks (Tick)
board.cache_hierarchy.clusters.l1dcache.overallMissLatency::total   1077662258                       # number of overall miss ticks (Tick)
board.cache_hierarchy.clusters.l1dcache.demandAccesses::processor.cores.core.data      3649557                       # number of demand (read+write) accesses (Count)
board.cache_hierarchy.clusters.l1dcache.demandAccesses::total      3649557                       # number of demand (read+write) accesses (Count)
board.cache_hierarchy.clusters.l1dcache.overallAccesses::processor.cores.core.data      3649557                       # number of overall (read+write) accesses (Count)
board.cache_hierarchy.clusters.l1dcache.overallAccesses::total      3649557                       # number of overall (read+write) accesses (Count)
board.cache_hierarchy.clusters.l1dcache.demandMissRate::processor.cores.core.data     0.013199                       # miss rate for demand accesses (Ratio)
board.cache_hierarchy.clusters.l1dcache.demandMissRate::total     0.013199                       # miss rate for demand accesses (Ratio)
board.cache_hierarchy.clusters.l1dcache.overallMissRate::processor.cores.core.data     0.013199                       # miss rate for overall accesses (Ratio)
board.cache_hierarchy.clusters.l1dcache.overallMissRate::total     0.013199                       # miss rate for overall accesses (Ratio)
board.cache_hierarchy.clusters.l1dcache.demandAvgMissLatency::processor.cores.core.data 22372.062653                       # average overall miss latency in ticks ((Tick/Count))
board.cache_hierarchy.clusters.l1dcache.demandAvgMissLatency::total 22372.062653                       # average overall miss latency in ticks ((Tick/Count))
board.cache_hierarchy.clusters.l1dcache.overallAvgMissLatency::processor.cores.core.data 22372.062653                       # average overall miss latency ((Tick/Count))
board.cache_hierarchy.clusters.l1dcache.overallAvgMissLatency::total 22372.062653                       # average overall miss latency ((Tick/Count))
board.cache_hierarchy.clusters.l1dcache.blockedCycles::no_mshrs          209                       # number of cycles access was blocked (Cycle)
board.cache_hierarchy.clusters.l1dcache.blockedCycles::no_targets         2556                       # number of cycles access was blocked (Cycle)
board.cache_hierarchy.clusters.l1dcache.blockedCauses::no_mshrs            3                       # number of times access was blocked (Count)
board.cache_hierarchy.clusters.l1dcache.blockedCauses::no_targets           17                       # number of times access was blocked (Count)
board.cache_hierarchy.clusters.l1dcache.avgBlocked::no_mshrs    69.666667                       # average number of cycles each access was blocked ((Cycle/Count))
board.cache_hierarchy.clusters.l1dcache.avgBlocked::no_targets   150.352941                       # average number of cycles each access was blocked ((Cycle/Count))
board.cache_hierarchy.clusters.l1dcache.writebacks::writebacks        39800                       # number of writebacks (Count)
board.cache_hierarchy.clusters.l1dcache.writebacks::total        39800                       # number of writebacks (Count)
board.cache_hierarchy.clusters.l1dcache.demandMshrHits::processor.cores.core.data        28359                       # number of demand (read+write) MSHR hits (Count)
board.cache_hierarchy.clusters.l1dcache.demandMshrHits::total        28359                       # number of demand (read+write) MSHR hits (Count)
board.cache_hierarchy.clusters.l1dcache.overallMshrHits::processor.cores.core.data        28359                       # number of overall MSHR hits (Count)
board.cache_hierarchy.clusters.l1dcache.overallMshrHits::total        28359                       # number of overall MSHR hits (Count)
board.cache_hierarchy.clusters.l1dcache.demandMshrMisses::processor.cores.core.data        19811                       # number of demand (read+write) MSHR misses (Count)
board.cache_hierarchy.clusters.l1dcache.demandMshrMisses::total        19811                       # number of demand (read+write) MSHR misses (Count)
board.cache_hierarchy.clusters.l1dcache.overallMshrMisses::cache_hierarchy.clusters.l1dcache.prefetcher        21333                       # number of overall MSHR misses (Count)
board.cache_hierarchy.clusters.l1dcache.overallMshrMisses::processor.cores.core.data        19811                       # number of overall MSHR misses (Count)
board.cache_hierarchy.clusters.l1dcache.overallMshrMisses::total        41144                       # number of overall MSHR misses (Count)
board.cache_hierarchy.clusters.l1dcache.demandMshrMissLatency::processor.cores.core.data    343884105                       # number of demand (read+write) MSHR miss ticks (Tick)
board.cache_hierarchy.clusters.l1dcache.demandMshrMissLatency::total    343884105                       # number of demand (read+write) MSHR miss ticks (Tick)
board.cache_hierarchy.clusters.l1dcache.overallMshrMissLatency::cache_hierarchy.clusters.l1dcache.prefetcher    335303381                       # number of overall MSHR miss ticks (Tick)
board.cache_hierarchy.clusters.l1dcache.overallMshrMissLatency::processor.cores.core.data    343884105                       # number of overall MSHR miss ticks (Tick)
board.cache_hierarchy.clusters.l1dcache.overallMshrMissLatency::total    679187486                       # number of overall MSHR miss ticks (Tick)
board.cache_hierarchy.clusters.l1dcache.demandMshrMissRate::processor.cores.core.data     0.005428                       # mshr miss ratio for demand accesses (Ratio)
board.cache_hierarchy.clusters.l1dcache.demandMshrMissRate::total     0.005428                       # mshr miss ratio for demand accesses (Ratio)
board.cache_hierarchy.clusters.l1dcache.overallMshrMissRate::cache_hierarchy.clusters.l1dcache.prefetcher          inf                       # mshr miss ratio for overall accesses (Ratio)
board.cache_hierarchy.clusters.l1dcache.overallMshrMissRate::processor.cores.core.data     0.005428                       # mshr miss ratio for overall accesses (Ratio)
board.cache_hierarchy.clusters.l1dcache.overallMshrMissRate::total     0.011274                       # mshr miss ratio for overall accesses (Ratio)
board.cache_hierarchy.clusters.l1dcache.demandAvgMshrMissLatency::processor.cores.core.data 17358.240624                       # average overall mshr miss latency ((Tick/Count))
board.cache_hierarchy.clusters.l1dcache.demandAvgMshrMissLatency::total 17358.240624                       # average overall mshr miss latency ((Tick/Count))
board.cache_hierarchy.clusters.l1dcache.overallAvgMshrMissLatency::cache_hierarchy.clusters.l1dcache.prefetcher 15717.591572                       # average overall mshr miss latency ((Tick/Count))
board.cache_hierarchy.clusters.l1dcache.overallAvgMshrMissLatency::processor.cores.core.data 17358.240624                       # average overall mshr miss latency ((Tick/Count))
board.cache_hierarchy.clusters.l1dcache.overallAvgMshrMissLatency::total 16507.570630                       # average overall mshr miss latency ((Tick/Count))
board.cache_hierarchy.clusters.l1dcache.replacements        41258                       # number of replacements (Count)
board.cache_hierarchy.clusters.l1dcache.HardPFReq.mshrMisses::cache_hierarchy.clusters.l1dcache.prefetcher        21333                       # number of HardPFReq MSHR misses (Count)
board.cache_hierarchy.clusters.l1dcache.HardPFReq.mshrMisses::total        21333                       # number of HardPFReq MSHR misses (Count)
board.cache_hierarchy.clusters.l1dcache.HardPFReq.mshrMissLatency::cache_hierarchy.clusters.l1dcache.prefetcher    335303381                       # number of HardPFReq MSHR miss ticks (Tick)
board.cache_hierarchy.clusters.l1dcache.HardPFReq.mshrMissLatency::total    335303381                       # number of HardPFReq MSHR miss ticks (Tick)
board.cache_hierarchy.clusters.l1dcache.HardPFReq.mshrMissRate::cache_hierarchy.clusters.l1dcache.prefetcher          inf                       # mshr miss rate for HardPFReq accesses (Ratio)
board.cache_hierarchy.clusters.l1dcache.HardPFReq.mshrMissRate::total          inf                       # mshr miss rate for HardPFReq accesses (Ratio)
board.cache_hierarchy.clusters.l1dcache.HardPFReq.avgMshrMissLatency::cache_hierarchy.clusters.l1dcache.prefetcher 15717.591572                       # average HardPFReq mshr miss latency ((Tick/Count))
board.cache_hierarchy.clusters.l1dcache.HardPFReq.avgMshrMissLatency::total 15717.591572                       # average HardPFReq mshr miss latency ((Tick/Count))
board.cache_hierarchy.clusters.l1dcache.LoadLockedReq.hits::processor.cores.core.data         4225                       # number of LoadLockedReq hits (Count)
board.cache_hierarchy.clusters.l1dcache.LoadLockedReq.hits::total         4225                       # number of LoadLockedReq hits (Count)
board.cache_hierarchy.clusters.l1dcache.LoadLockedReq.misses::processor.cores.core.data           27                       # number of LoadLockedReq misses (Count)
board.cache_hierarchy.clusters.l1dcache.LoadLockedReq.misses::total           27                       # number of LoadLockedReq misses (Count)
board.cache_hierarchy.clusters.l1dcache.LoadLockedReq.missLatency::processor.cores.core.data       519813                       # number of LoadLockedReq miss ticks (Tick)
board.cache_hierarchy.clusters.l1dcache.LoadLockedReq.missLatency::total       519813                       # number of LoadLockedReq miss ticks (Tick)
board.cache_hierarchy.clusters.l1dcache.LoadLockedReq.accesses::processor.cores.core.data         4252                       # number of LoadLockedReq accesses(hits+misses) (Count)
board.cache_hierarchy.clusters.l1dcache.LoadLockedReq.accesses::total         4252                       # number of LoadLockedReq accesses(hits+misses) (Count)
board.cache_hierarchy.clusters.l1dcache.LoadLockedReq.missRate::processor.cores.core.data     0.006350                       # miss rate for LoadLockedReq accesses (Ratio)
board.cache_hierarchy.clusters.l1dcache.LoadLockedReq.missRate::total     0.006350                       # miss rate for LoadLockedReq accesses (Ratio)
board.cache_hierarchy.clusters.l1dcache.LoadLockedReq.avgMissLatency::processor.cores.core.data 19252.333333                       # average LoadLockedReq miss latency ((Tick/Count))
board.cache_hierarchy.clusters.l1dcache.LoadLockedReq.avgMissLatency::total 19252.333333                       # average LoadLockedReq miss latency ((Tick/Count))
board.cache_hierarchy.clusters.l1dcache.LoadLockedReq.mshrHits::processor.cores.core.data           22                       # number of LoadLockedReq MSHR hits (Count)
board.cache_hierarchy.clusters.l1dcache.LoadLockedReq.mshrHits::total           22                       # number of LoadLockedReq MSHR hits (Count)
board.cache_hierarchy.clusters.l1dcache.LoadLockedReq.mshrMisses::processor.cores.core.data            5                       # number of LoadLockedReq MSHR misses (Count)
board.cache_hierarchy.clusters.l1dcache.LoadLockedReq.mshrMisses::total            5                       # number of LoadLockedReq MSHR misses (Count)
board.cache_hierarchy.clusters.l1dcache.LoadLockedReq.mshrMissLatency::processor.cores.core.data       205461                       # number of LoadLockedReq MSHR miss ticks (Tick)
board.cache_hierarchy.clusters.l1dcache.LoadLockedReq.mshrMissLatency::total       205461                       # number of LoadLockedReq MSHR miss ticks (Tick)
board.cache_hierarchy.clusters.l1dcache.LoadLockedReq.mshrMissRate::processor.cores.core.data     0.001176                       # mshr miss rate for LoadLockedReq accesses (Ratio)
board.cache_hierarchy.clusters.l1dcache.LoadLockedReq.mshrMissRate::total     0.001176                       # mshr miss rate for LoadLockedReq accesses (Ratio)
board.cache_hierarchy.clusters.l1dcache.LoadLockedReq.avgMshrMissLatency::processor.cores.core.data 41092.200000                       # average LoadLockedReq mshr miss latency ((Tick/Count))
board.cache_hierarchy.clusters.l1dcache.LoadLockedReq.avgMshrMissLatency::total 41092.200000                       # average LoadLockedReq mshr miss latency ((Tick/Count))
board.cache_hierarchy.clusters.l1dcache.ReadReq.hits::processor.cores.core.data      2848510                       # number of ReadReq hits (Count)
board.cache_hierarchy.clusters.l1dcache.ReadReq.hits::total      2848510                       # number of ReadReq hits (Count)
board.cache_hierarchy.clusters.l1dcache.ReadReq.misses::processor.cores.core.data        27524                       # number of ReadReq misses (Count)
board.cache_hierarchy.clusters.l1dcache.ReadReq.misses::total        27524                       # number of ReadReq misses (Count)
board.cache_hierarchy.clusters.l1dcache.ReadReq.missLatency::processor.cores.core.data    187763715                       # number of ReadReq miss ticks (Tick)
board.cache_hierarchy.clusters.l1dcache.ReadReq.missLatency::total    187763715                       # number of ReadReq miss ticks (Tick)
board.cache_hierarchy.clusters.l1dcache.ReadReq.accesses::processor.cores.core.data      2876034                       # number of ReadReq accesses(hits+misses) (Count)
board.cache_hierarchy.clusters.l1dcache.ReadReq.accesses::total      2876034                       # number of ReadReq accesses(hits+misses) (Count)
board.cache_hierarchy.clusters.l1dcache.ReadReq.missRate::processor.cores.core.data     0.009570                       # miss rate for ReadReq accesses (Ratio)
board.cache_hierarchy.clusters.l1dcache.ReadReq.missRate::total     0.009570                       # miss rate for ReadReq accesses (Ratio)
board.cache_hierarchy.clusters.l1dcache.ReadReq.avgMissLatency::processor.cores.core.data  6821.817868                       # average ReadReq miss latency ((Tick/Count))
board.cache_hierarchy.clusters.l1dcache.ReadReq.avgMissLatency::total  6821.817868                       # average ReadReq miss latency ((Tick/Count))
board.cache_hierarchy.clusters.l1dcache.ReadReq.mshrHits::processor.cores.core.data        17821                       # number of ReadReq MSHR hits (Count)
board.cache_hierarchy.clusters.l1dcache.ReadReq.mshrHits::total        17821                       # number of ReadReq MSHR hits (Count)
board.cache_hierarchy.clusters.l1dcache.ReadReq.mshrMisses::processor.cores.core.data         9703                       # number of ReadReq MSHR misses (Count)
board.cache_hierarchy.clusters.l1dcache.ReadReq.mshrMisses::total         9703                       # number of ReadReq MSHR misses (Count)
board.cache_hierarchy.clusters.l1dcache.ReadReq.mshrMissLatency::processor.cores.core.data     74470122                       # number of ReadReq MSHR miss ticks (Tick)
board.cache_hierarchy.clusters.l1dcache.ReadReq.mshrMissLatency::total     74470122                       # number of ReadReq MSHR miss ticks (Tick)
board.cache_hierarchy.clusters.l1dcache.ReadReq.mshrMissRate::processor.cores.core.data     0.003374                       # mshr miss rate for ReadReq accesses (Ratio)
board.cache_hierarchy.clusters.l1dcache.ReadReq.mshrMissRate::total     0.003374                       # mshr miss rate for ReadReq accesses (Ratio)
board.cache_hierarchy.clusters.l1dcache.ReadReq.avgMshrMissLatency::processor.cores.core.data  7674.958466                       # average ReadReq mshr miss latency ((Tick/Count))
board.cache_hierarchy.clusters.l1dcache.ReadReq.avgMshrMissLatency::total  7674.958466                       # average ReadReq mshr miss latency ((Tick/Count))
board.cache_hierarchy.clusters.l1dcache.StoreCondReq.hits::processor.cores.core.data         4176                       # number of StoreCondReq hits (Count)
board.cache_hierarchy.clusters.l1dcache.StoreCondReq.hits::total         4176                       # number of StoreCondReq hits (Count)
board.cache_hierarchy.clusters.l1dcache.StoreCondReq.misses::processor.cores.core.data            6                       # number of StoreCondReq misses (Count)
board.cache_hierarchy.clusters.l1dcache.StoreCondReq.misses::total            6                       # number of StoreCondReq misses (Count)
board.cache_hierarchy.clusters.l1dcache.StoreCondReq.missLatency::processor.cores.core.data        27972                       # number of StoreCondReq miss ticks (Tick)
board.cache_hierarchy.clusters.l1dcache.StoreCondReq.missLatency::total        27972                       # number of StoreCondReq miss ticks (Tick)
board.cache_hierarchy.clusters.l1dcache.StoreCondReq.accesses::processor.cores.core.data         4182                       # number of StoreCondReq accesses(hits+misses) (Count)
board.cache_hierarchy.clusters.l1dcache.StoreCondReq.accesses::total         4182                       # number of StoreCondReq accesses(hits+misses) (Count)
board.cache_hierarchy.clusters.l1dcache.StoreCondReq.missRate::processor.cores.core.data     0.001435                       # miss rate for StoreCondReq accesses (Ratio)
board.cache_hierarchy.clusters.l1dcache.StoreCondReq.missRate::total     0.001435                       # miss rate for StoreCondReq accesses (Ratio)
board.cache_hierarchy.clusters.l1dcache.StoreCondReq.avgMissLatency::processor.cores.core.data         4662                       # average StoreCondReq miss latency ((Tick/Count))
board.cache_hierarchy.clusters.l1dcache.StoreCondReq.avgMissLatency::total         4662                       # average StoreCondReq miss latency ((Tick/Count))
board.cache_hierarchy.clusters.l1dcache.StoreCondReq.mshrMisses::processor.cores.core.data            6                       # number of StoreCondReq MSHR misses (Count)
board.cache_hierarchy.clusters.l1dcache.StoreCondReq.mshrMisses::total            6                       # number of StoreCondReq MSHR misses (Count)
board.cache_hierarchy.clusters.l1dcache.StoreCondReq.mshrMissLatency::processor.cores.core.data        25974                       # number of StoreCondReq MSHR miss ticks (Tick)
board.cache_hierarchy.clusters.l1dcache.StoreCondReq.mshrMissLatency::total        25974                       # number of StoreCondReq MSHR miss ticks (Tick)
board.cache_hierarchy.clusters.l1dcache.StoreCondReq.mshrMissRate::processor.cores.core.data     0.001435                       # mshr miss rate for StoreCondReq accesses (Ratio)
board.cache_hierarchy.clusters.l1dcache.StoreCondReq.mshrMissRate::total     0.001435                       # mshr miss rate for StoreCondReq accesses (Ratio)
board.cache_hierarchy.clusters.l1dcache.StoreCondReq.avgMshrMissLatency::processor.cores.core.data         4329                       # average StoreCondReq mshr miss latency ((Tick/Count))
board.cache_hierarchy.clusters.l1dcache.StoreCondReq.avgMshrMissLatency::total         4329                       # average StoreCondReq mshr miss latency ((Tick/Count))
board.cache_hierarchy.clusters.l1dcache.SwapReq.hits::processor.cores.core.data        66171                       # number of SwapReq hits (Count)
board.cache_hierarchy.clusters.l1dcache.SwapReq.hits::total        66171                       # number of SwapReq hits (Count)
board.cache_hierarchy.clusters.l1dcache.SwapReq.misses::processor.cores.core.data          896                       # number of SwapReq misses (Count)
board.cache_hierarchy.clusters.l1dcache.SwapReq.misses::total          896                       # number of SwapReq misses (Count)
board.cache_hierarchy.clusters.l1dcache.SwapReq.missLatency::processor.cores.core.data      4214115                       # number of SwapReq miss ticks (Tick)
board.cache_hierarchy.clusters.l1dcache.SwapReq.missLatency::total      4214115                       # number of SwapReq miss ticks (Tick)
board.cache_hierarchy.clusters.l1dcache.SwapReq.accesses::processor.cores.core.data        67067                       # number of SwapReq accesses(hits+misses) (Count)
board.cache_hierarchy.clusters.l1dcache.SwapReq.accesses::total        67067                       # number of SwapReq accesses(hits+misses) (Count)
board.cache_hierarchy.clusters.l1dcache.SwapReq.missRate::processor.cores.core.data     0.013360                       # miss rate for SwapReq accesses (Ratio)
board.cache_hierarchy.clusters.l1dcache.SwapReq.missRate::total     0.013360                       # miss rate for SwapReq accesses (Ratio)
board.cache_hierarchy.clusters.l1dcache.SwapReq.avgMissLatency::processor.cores.core.data  4703.253348                       # average SwapReq miss latency ((Tick/Count))
board.cache_hierarchy.clusters.l1dcache.SwapReq.avgMissLatency::total  4703.253348                       # average SwapReq miss latency ((Tick/Count))
board.cache_hierarchy.clusters.l1dcache.SwapReq.mshrMisses::processor.cores.core.data          896                       # number of SwapReq MSHR misses (Count)
board.cache_hierarchy.clusters.l1dcache.SwapReq.mshrMisses::total          896                       # number of SwapReq MSHR misses (Count)
board.cache_hierarchy.clusters.l1dcache.SwapReq.mshrMissLatency::processor.cores.core.data      3915747                       # number of SwapReq MSHR miss ticks (Tick)
board.cache_hierarchy.clusters.l1dcache.SwapReq.mshrMissLatency::total      3915747                       # number of SwapReq MSHR miss ticks (Tick)
board.cache_hierarchy.clusters.l1dcache.SwapReq.mshrMissRate::processor.cores.core.data     0.013360                       # mshr miss rate for SwapReq accesses (Ratio)
board.cache_hierarchy.clusters.l1dcache.SwapReq.mshrMissRate::total     0.013360                       # mshr miss rate for SwapReq accesses (Ratio)
board.cache_hierarchy.clusters.l1dcache.SwapReq.avgMshrMissLatency::processor.cores.core.data  4370.253348                       # average SwapReq mshr miss latency ((Tick/Count))
board.cache_hierarchy.clusters.l1dcache.SwapReq.avgMshrMissLatency::total  4370.253348                       # average SwapReq mshr miss latency ((Tick/Count))
board.cache_hierarchy.clusters.l1dcache.WriteReq.hits::processor.cores.core.data       752877                       # number of WriteReq hits (Count)
board.cache_hierarchy.clusters.l1dcache.WriteReq.hits::total       752877                       # number of WriteReq hits (Count)
board.cache_hierarchy.clusters.l1dcache.WriteReq.misses::processor.cores.core.data        20646                       # number of WriteReq misses (Count)
board.cache_hierarchy.clusters.l1dcache.WriteReq.misses::total        20646                       # number of WriteReq misses (Count)
board.cache_hierarchy.clusters.l1dcache.WriteReq.missLatency::processor.cores.core.data    889898543                       # number of WriteReq miss ticks (Tick)
board.cache_hierarchy.clusters.l1dcache.WriteReq.missLatency::total    889898543                       # number of WriteReq miss ticks (Tick)
board.cache_hierarchy.clusters.l1dcache.WriteReq.accesses::processor.cores.core.data       773523                       # number of WriteReq accesses(hits+misses) (Count)
board.cache_hierarchy.clusters.l1dcache.WriteReq.accesses::total       773523                       # number of WriteReq accesses(hits+misses) (Count)
board.cache_hierarchy.clusters.l1dcache.WriteReq.missRate::processor.cores.core.data     0.026691                       # miss rate for WriteReq accesses (Ratio)
board.cache_hierarchy.clusters.l1dcache.WriteReq.missRate::total     0.026691                       # miss rate for WriteReq accesses (Ratio)
board.cache_hierarchy.clusters.l1dcache.WriteReq.avgMissLatency::processor.cores.core.data 43102.709629                       # average WriteReq miss latency ((Tick/Count))
board.cache_hierarchy.clusters.l1dcache.WriteReq.avgMissLatency::total 43102.709629                       # average WriteReq miss latency ((Tick/Count))
board.cache_hierarchy.clusters.l1dcache.WriteReq.mshrHits::processor.cores.core.data        10538                       # number of WriteReq MSHR hits (Count)
board.cache_hierarchy.clusters.l1dcache.WriteReq.mshrHits::total        10538                       # number of WriteReq MSHR hits (Count)
board.cache_hierarchy.clusters.l1dcache.WriteReq.mshrMisses::processor.cores.core.data        10108                       # number of WriteReq MSHR misses (Count)
board.cache_hierarchy.clusters.l1dcache.WriteReq.mshrMisses::total        10108                       # number of WriteReq MSHR misses (Count)
board.cache_hierarchy.clusters.l1dcache.WriteReq.mshrMissLatency::processor.cores.core.data    269413983                       # number of WriteReq MSHR miss ticks (Tick)
board.cache_hierarchy.clusters.l1dcache.WriteReq.mshrMissLatency::total    269413983                       # number of WriteReq MSHR miss ticks (Tick)
board.cache_hierarchy.clusters.l1dcache.WriteReq.mshrMissRate::processor.cores.core.data     0.013067                       # mshr miss rate for WriteReq accesses (Ratio)
board.cache_hierarchy.clusters.l1dcache.WriteReq.mshrMissRate::total     0.013067                       # mshr miss rate for WriteReq accesses (Ratio)
board.cache_hierarchy.clusters.l1dcache.WriteReq.avgMshrMissLatency::processor.cores.core.data 26653.540067                       # average WriteReq mshr miss latency ((Tick/Count))
board.cache_hierarchy.clusters.l1dcache.WriteReq.avgMshrMissLatency::total 26653.540067                       # average WriteReq mshr miss latency ((Tick/Count))
board.cache_hierarchy.clusters.l1dcache.power_state.pwrStateResidencyTicks::UNDEFINED   4050613665                       # Cumulative time (in ticks) in various power states (Tick)
board.cache_hierarchy.clusters.l1dcache.prefetcher.demandMshrMisses        19811                       # demands not covered by prefetchs (Count)
board.cache_hierarchy.clusters.l1dcache.prefetcher.pfIssued        84457                       # number of hwpf issued (Count)
board.cache_hierarchy.clusters.l1dcache.prefetcher.pfUnused         2990                       # number of HardPF blocks evicted w/o reference (Count)
board.cache_hierarchy.clusters.l1dcache.prefetcher.pfUseful        17392                       # number of useful prefetch (Count)
board.cache_hierarchy.clusters.l1dcache.prefetcher.pfUsefulButMiss           94                       # number of hit on prefetch but cache block is not in an usable state (Count)
board.cache_hierarchy.clusters.l1dcache.prefetcher.accuracy     0.205927                       # accuracy of the prefetcher (Count)
board.cache_hierarchy.clusters.l1dcache.prefetcher.coverage     0.467489                       # coverage brought by this prefetcher (Count)
board.cache_hierarchy.clusters.l1dcache.prefetcher.pfHitInCache        47438                       # number of prefetches hitting in cache (Count)
board.cache_hierarchy.clusters.l1dcache.prefetcher.pfHitInMSHR        15686                       # number of prefetches hitting in a MSHR (Count)
board.cache_hierarchy.clusters.l1dcache.prefetcher.pfHitInWB            0                       # number of prefetches hit in the Write Buffer (Count)
board.cache_hierarchy.clusters.l1dcache.prefetcher.pfLate        63124                       # number of late prefetches (hitting in cache, MSHR or WB) (Count)
board.cache_hierarchy.clusters.l1dcache.prefetcher.pfIdentified        99098                       # number of prefetch candidates identified (Count)
board.cache_hierarchy.clusters.l1dcache.prefetcher.pfBufferHit        12373                       # number of redundant prefetches already in prefetch queue (Count)
board.cache_hierarchy.clusters.l1dcache.prefetcher.pfInCache            0                       # number of redundant prefetches already in cache/mshr dropped (Count)
board.cache_hierarchy.clusters.l1dcache.prefetcher.pfRemovedDemand          186                       # number of prefetches dropped due to a demand for the same address (Count)
board.cache_hierarchy.clusters.l1dcache.prefetcher.pfRemovedFull            0                       # number of prefetches dropped due to prefetch queue size (Count)
board.cache_hierarchy.clusters.l1dcache.prefetcher.pfSpanPage         7210                       # number of prefetches that crossed the page (Count)
board.cache_hierarchy.clusters.l1dcache.prefetcher.pfUsefulSpanPage         2714                       # number of prefetches that is useful and crossed the page (Count)
board.cache_hierarchy.clusters.l1dcache.prefetcher.power_state.pwrStateResidencyTicks::UNDEFINED   4050613665                       # Cumulative time (in ticks) in various power states (Tick)
board.cache_hierarchy.clusters.l1dcache.tags.tagsInUse   508.117004                       # Average ticks per tags in use ((Tick/Count))
board.cache_hierarchy.clusters.l1dcache.tags.totalRefs      3718381                       # Total number of references to valid blocks. (Count)
board.cache_hierarchy.clusters.l1dcache.tags.sampledRefs        41770                       # Sample count of references to valid blocks. (Count)
board.cache_hierarchy.clusters.l1dcache.tags.avgRefs    89.020373                       # Average number of references to valid blocks. ((Count/Count))
board.cache_hierarchy.clusters.l1dcache.tags.warmupTick       259074                       # The tick when the warmup percentage was hit. (Tick)
board.cache_hierarchy.clusters.l1dcache.tags.occupancies::cache_hierarchy.clusters.l1dcache.prefetcher   336.762144                       # Average occupied blocks per tick, per requestor ((Count/Tick))
board.cache_hierarchy.clusters.l1dcache.tags.occupancies::processor.cores.core.data   171.354860                       # Average occupied blocks per tick, per requestor ((Count/Tick))
board.cache_hierarchy.clusters.l1dcache.tags.avgOccs::cache_hierarchy.clusters.l1dcache.prefetcher     0.657739                       # Average percentage of cache occupancy ((Ratio/Tick))
board.cache_hierarchy.clusters.l1dcache.tags.avgOccs::processor.cores.core.data     0.334677                       # Average percentage of cache occupancy ((Ratio/Tick))
board.cache_hierarchy.clusters.l1dcache.tags.avgOccs::total     0.992416                       # Average percentage of cache occupancy ((Ratio/Tick))
board.cache_hierarchy.clusters.l1dcache.tags.occupanciesTaskId::1022          139                       # Occupied blocks per task id (Count)
board.cache_hierarchy.clusters.l1dcache.tags.occupanciesTaskId::1024          373                       # Occupied blocks per task id (Count)
board.cache_hierarchy.clusters.l1dcache.tags.ageTaskId_1022::0           42                       # Occupied blocks per task id, per block age (Count)
board.cache_hierarchy.clusters.l1dcache.tags.ageTaskId_1022::1           97                       # Occupied blocks per task id, per block age (Count)
board.cache_hierarchy.clusters.l1dcache.tags.ageTaskId_1024::0          200                       # Occupied blocks per task id, per block age (Count)
board.cache_hierarchy.clusters.l1dcache.tags.ageTaskId_1024::1          171                       # Occupied blocks per task id, per block age (Count)
board.cache_hierarchy.clusters.l1dcache.tags.ageTaskId_1024::2            1                       # Occupied blocks per task id, per block age (Count)
board.cache_hierarchy.clusters.l1dcache.tags.ageTaskId_1024::3            1                       # Occupied blocks per task id, per block age (Count)
board.cache_hierarchy.clusters.l1dcache.tags.ratioOccsTaskId::1022     0.271484                       # Ratio of occupied blocks and all blocks, per task id (Ratio)
board.cache_hierarchy.clusters.l1dcache.tags.ratioOccsTaskId::1024     0.728516                       # Ratio of occupied blocks and all blocks, per task id (Ratio)
board.cache_hierarchy.clusters.l1dcache.tags.tagAccesses     14942002                       # Number of tag accesses (Count)
board.cache_hierarchy.clusters.l1dcache.tags.dataAccesses     14942002                       # Number of data accesses (Count)
board.cache_hierarchy.clusters.l1dcache.tags.power_state.pwrStateResidencyTicks::UNDEFINED   4050613665                       # Cumulative time (in ticks) in various power states (Tick)
board.cache_hierarchy.clusters.l1icache.demandHits::processor.cores.core.inst      4185180                       # number of demand (read+write) hits (Count)
board.cache_hierarchy.clusters.l1icache.demandHits::total      4185180                       # number of demand (read+write) hits (Count)
board.cache_hierarchy.clusters.l1icache.overallHits::processor.cores.core.inst      4185180                       # number of overall hits (Count)
board.cache_hierarchy.clusters.l1icache.overallHits::total      4185180                       # number of overall hits (Count)
board.cache_hierarchy.clusters.l1icache.demandMisses::processor.cores.core.inst         3645                       # number of demand (read+write) misses (Count)
board.cache_hierarchy.clusters.l1icache.demandMisses::total         3645                       # number of demand (read+write) misses (Count)
board.cache_hierarchy.clusters.l1icache.overallMisses::processor.cores.core.inst         3645                       # number of overall misses (Count)
board.cache_hierarchy.clusters.l1icache.overallMisses::total         3645                       # number of overall misses (Count)
board.cache_hierarchy.clusters.l1icache.demandMissLatency::processor.cores.core.inst    206563896                       # number of demand (read+write) miss ticks (Tick)
board.cache_hierarchy.clusters.l1icache.demandMissLatency::total    206563896                       # number of demand (read+write) miss ticks (Tick)
board.cache_hierarchy.clusters.l1icache.overallMissLatency::processor.cores.core.inst    206563896                       # number of overall miss ticks (Tick)
board.cache_hierarchy.clusters.l1icache.overallMissLatency::total    206563896                       # number of overall miss ticks (Tick)
board.cache_hierarchy.clusters.l1icache.demandAccesses::processor.cores.core.inst      4188825                       # number of demand (read+write) accesses (Count)
board.cache_hierarchy.clusters.l1icache.demandAccesses::total      4188825                       # number of demand (read+write) accesses (Count)
board.cache_hierarchy.clusters.l1icache.overallAccesses::processor.cores.core.inst      4188825                       # number of overall (read+write) accesses (Count)
board.cache_hierarchy.clusters.l1icache.overallAccesses::total      4188825                       # number of overall (read+write) accesses (Count)
board.cache_hierarchy.clusters.l1icache.demandMissRate::processor.cores.core.inst     0.000870                       # miss rate for demand accesses (Ratio)
board.cache_hierarchy.clusters.l1icache.demandMissRate::total     0.000870                       # miss rate for demand accesses (Ratio)
board.cache_hierarchy.clusters.l1icache.overallMissRate::processor.cores.core.inst     0.000870                       # miss rate for overall accesses (Ratio)
board.cache_hierarchy.clusters.l1icache.overallMissRate::total     0.000870                       # miss rate for overall accesses (Ratio)
board.cache_hierarchy.clusters.l1icache.demandAvgMissLatency::processor.cores.core.inst 56670.479012                       # average overall miss latency in ticks ((Tick/Count))
board.cache_hierarchy.clusters.l1icache.demandAvgMissLatency::total 56670.479012                       # average overall miss latency in ticks ((Tick/Count))
board.cache_hierarchy.clusters.l1icache.overallAvgMissLatency::processor.cores.core.inst 56670.479012                       # average overall miss latency ((Tick/Count))
board.cache_hierarchy.clusters.l1icache.overallAvgMissLatency::total 56670.479012                       # average overall miss latency ((Tick/Count))
board.cache_hierarchy.clusters.l1icache.blockedCycles::no_mshrs            0                       # number of cycles access was blocked (Cycle)
board.cache_hierarchy.clusters.l1icache.blockedCycles::no_targets            0                       # number of cycles access was blocked (Cycle)
board.cache_hierarchy.clusters.l1icache.blockedCauses::no_mshrs            0                       # number of times access was blocked (Count)
board.cache_hierarchy.clusters.l1icache.blockedCauses::no_targets            0                       # number of times access was blocked (Count)
board.cache_hierarchy.clusters.l1icache.avgBlocked::no_mshrs          nan                       # average number of cycles each access was blocked ((Cycle/Count))
board.cache_hierarchy.clusters.l1icache.avgBlocked::no_targets          nan                       # average number of cycles each access was blocked ((Cycle/Count))
board.cache_hierarchy.clusters.l1icache.writebacks::writebacks         2253                       # number of writebacks (Count)
board.cache_hierarchy.clusters.l1icache.writebacks::total         2253                       # number of writebacks (Count)
board.cache_hierarchy.clusters.l1icache.demandMshrHits::processor.cores.core.inst          880                       # number of demand (read+write) MSHR hits (Count)
board.cache_hierarchy.clusters.l1icache.demandMshrHits::total          880                       # number of demand (read+write) MSHR hits (Count)
board.cache_hierarchy.clusters.l1icache.overallMshrHits::processor.cores.core.inst          880                       # number of overall MSHR hits (Count)
board.cache_hierarchy.clusters.l1icache.overallMshrHits::total          880                       # number of overall MSHR hits (Count)
board.cache_hierarchy.clusters.l1icache.demandMshrMisses::processor.cores.core.inst         2765                       # number of demand (read+write) MSHR misses (Count)
board.cache_hierarchy.clusters.l1icache.demandMshrMisses::total         2765                       # number of demand (read+write) MSHR misses (Count)
board.cache_hierarchy.clusters.l1icache.overallMshrMisses::processor.cores.core.inst         2765                       # number of overall MSHR misses (Count)
board.cache_hierarchy.clusters.l1icache.overallMshrMisses::total         2765                       # number of overall MSHR misses (Count)
board.cache_hierarchy.clusters.l1icache.demandMshrMissLatency::processor.cores.core.inst    147872646                       # number of demand (read+write) MSHR miss ticks (Tick)
board.cache_hierarchy.clusters.l1icache.demandMshrMissLatency::total    147872646                       # number of demand (read+write) MSHR miss ticks (Tick)
board.cache_hierarchy.clusters.l1icache.overallMshrMissLatency::processor.cores.core.inst    147872646                       # number of overall MSHR miss ticks (Tick)
board.cache_hierarchy.clusters.l1icache.overallMshrMissLatency::total    147872646                       # number of overall MSHR miss ticks (Tick)
board.cache_hierarchy.clusters.l1icache.demandMshrMissRate::processor.cores.core.inst     0.000660                       # mshr miss ratio for demand accesses (Ratio)
board.cache_hierarchy.clusters.l1icache.demandMshrMissRate::total     0.000660                       # mshr miss ratio for demand accesses (Ratio)
board.cache_hierarchy.clusters.l1icache.overallMshrMissRate::processor.cores.core.inst     0.000660                       # mshr miss ratio for overall accesses (Ratio)
board.cache_hierarchy.clusters.l1icache.overallMshrMissRate::total     0.000660                       # mshr miss ratio for overall accesses (Ratio)
board.cache_hierarchy.clusters.l1icache.demandAvgMshrMissLatency::processor.cores.core.inst 53480.161302                       # average overall mshr miss latency ((Tick/Count))
board.cache_hierarchy.clusters.l1icache.demandAvgMshrMissLatency::total 53480.161302                       # average overall mshr miss latency ((Tick/Count))
board.cache_hierarchy.clusters.l1icache.overallAvgMshrMissLatency::processor.cores.core.inst 53480.161302                       # average overall mshr miss latency ((Tick/Count))
board.cache_hierarchy.clusters.l1icache.overallAvgMshrMissLatency::total 53480.161302                       # average overall mshr miss latency ((Tick/Count))
board.cache_hierarchy.clusters.l1icache.replacements         2253                       # number of replacements (Count)
board.cache_hierarchy.clusters.l1icache.ReadReq.hits::processor.cores.core.inst      4185180                       # number of ReadReq hits (Count)
board.cache_hierarchy.clusters.l1icache.ReadReq.hits::total      4185180                       # number of ReadReq hits (Count)
board.cache_hierarchy.clusters.l1icache.ReadReq.misses::processor.cores.core.inst         3645                       # number of ReadReq misses (Count)
board.cache_hierarchy.clusters.l1icache.ReadReq.misses::total         3645                       # number of ReadReq misses (Count)
board.cache_hierarchy.clusters.l1icache.ReadReq.missLatency::processor.cores.core.inst    206563896                       # number of ReadReq miss ticks (Tick)
board.cache_hierarchy.clusters.l1icache.ReadReq.missLatency::total    206563896                       # number of ReadReq miss ticks (Tick)
board.cache_hierarchy.clusters.l1icache.ReadReq.accesses::processor.cores.core.inst      4188825                       # number of ReadReq accesses(hits+misses) (Count)
board.cache_hierarchy.clusters.l1icache.ReadReq.accesses::total      4188825                       # number of ReadReq accesses(hits+misses) (Count)
board.cache_hierarchy.clusters.l1icache.ReadReq.missRate::processor.cores.core.inst     0.000870                       # miss rate for ReadReq accesses (Ratio)
board.cache_hierarchy.clusters.l1icache.ReadReq.missRate::total     0.000870                       # miss rate for ReadReq accesses (Ratio)
board.cache_hierarchy.clusters.l1icache.ReadReq.avgMissLatency::processor.cores.core.inst 56670.479012                       # average ReadReq miss latency ((Tick/Count))
board.cache_hierarchy.clusters.l1icache.ReadReq.avgMissLatency::total 56670.479012                       # average ReadReq miss latency ((Tick/Count))
board.cache_hierarchy.clusters.l1icache.ReadReq.mshrHits::processor.cores.core.inst          880                       # number of ReadReq MSHR hits (Count)
board.cache_hierarchy.clusters.l1icache.ReadReq.mshrHits::total          880                       # number of ReadReq MSHR hits (Count)
board.cache_hierarchy.clusters.l1icache.ReadReq.mshrMisses::processor.cores.core.inst         2765                       # number of ReadReq MSHR misses (Count)
board.cache_hierarchy.clusters.l1icache.ReadReq.mshrMisses::total         2765                       # number of ReadReq MSHR misses (Count)
board.cache_hierarchy.clusters.l1icache.ReadReq.mshrMissLatency::processor.cores.core.inst    147872646                       # number of ReadReq MSHR miss ticks (Tick)
board.cache_hierarchy.clusters.l1icache.ReadReq.mshrMissLatency::total    147872646                       # number of ReadReq MSHR miss ticks (Tick)
board.cache_hierarchy.clusters.l1icache.ReadReq.mshrMissRate::processor.cores.core.inst     0.000660                       # mshr miss rate for ReadReq accesses (Ratio)
board.cache_hierarchy.clusters.l1icache.ReadReq.mshrMissRate::total     0.000660                       # mshr miss rate for ReadReq accesses (Ratio)
board.cache_hierarchy.clusters.l1icache.ReadReq.avgMshrMissLatency::processor.cores.core.inst 53480.161302                       # average ReadReq mshr miss latency ((Tick/Count))
board.cache_hierarchy.clusters.l1icache.ReadReq.avgMshrMissLatency::total 53480.161302                       # average ReadReq mshr miss latency ((Tick/Count))
board.cache_hierarchy.clusters.l1icache.power_state.pwrStateResidencyTicks::UNDEFINED   4050613665                       # Cumulative time (in ticks) in various power states (Tick)
board.cache_hierarchy.clusters.l1icache.prefetcher.demandMshrMisses         2765                       # demands not covered by prefetchs (Count)
board.cache_hierarchy.clusters.l1icache.prefetcher.pfIssued            0                       # number of hwpf issued (Count)
board.cache_hierarchy.clusters.l1icache.prefetcher.pfUseful            0                       # number of useful prefetch (Count)
board.cache_hierarchy.clusters.l1icache.prefetcher.pfUsefulButMiss            0                       # number of hit on prefetch but cache block is not in an usable state (Count)
board.cache_hierarchy.clusters.l1icache.prefetcher.accuracy          nan                       # accuracy of the prefetcher (Count)
board.cache_hierarchy.clusters.l1icache.prefetcher.coverage            0                       # coverage brought by this prefetcher (Count)
board.cache_hierarchy.clusters.l1icache.prefetcher.pfHitInCache            0                       # number of prefetches hitting in cache (Count)
board.cache_hierarchy.clusters.l1icache.prefetcher.pfHitInMSHR            0                       # number of prefetches hitting in a MSHR (Count)
board.cache_hierarchy.clusters.l1icache.prefetcher.pfHitInWB            0                       # number of prefetches hit in the Write Buffer (Count)
board.cache_hierarchy.clusters.l1icache.prefetcher.pfLate            0                       # number of late prefetches (hitting in cache, MSHR or WB) (Count)
board.cache_hierarchy.clusters.l1icache.prefetcher.pfIdentified            0                       # number of prefetch candidates identified (Count)
board.cache_hierarchy.clusters.l1icache.prefetcher.pfBufferHit            0                       # number of redundant prefetches already in prefetch queue (Count)
board.cache_hierarchy.clusters.l1icache.prefetcher.pfInCache            0                       # number of redundant prefetches already in cache/mshr dropped (Count)
board.cache_hierarchy.clusters.l1icache.prefetcher.pfRemovedDemand            0                       # number of prefetches dropped due to a demand for the same address (Count)
board.cache_hierarchy.clusters.l1icache.prefetcher.pfRemovedFull            0                       # number of prefetches dropped due to prefetch queue size (Count)
board.cache_hierarchy.clusters.l1icache.prefetcher.pfSpanPage            0                       # number of prefetches that crossed the page (Count)
board.cache_hierarchy.clusters.l1icache.prefetcher.pfUsefulSpanPage            0                       # number of prefetches that is useful and crossed the page (Count)
board.cache_hierarchy.clusters.l1icache.prefetcher.power_state.pwrStateResidencyTicks::UNDEFINED   4050613665                       # Cumulative time (in ticks) in various power states (Tick)
board.cache_hierarchy.clusters.l1icache.tags.tagsInUse   504.504436                       # Average ticks per tags in use ((Tick/Count))
board.cache_hierarchy.clusters.l1icache.tags.totalRefs      4187945                       # Total number of references to valid blocks. (Count)
board.cache_hierarchy.clusters.l1icache.tags.sampledRefs         2765                       # Sample count of references to valid blocks. (Count)
board.cache_hierarchy.clusters.l1icache.tags.avgRefs  1514.627486                       # Average number of references to valid blocks. ((Count/Count))
board.cache_hierarchy.clusters.l1icache.tags.warmupTick        89910                       # The tick when the warmup percentage was hit. (Tick)
board.cache_hierarchy.clusters.l1icache.tags.occupancies::processor.cores.core.inst   504.504436                       # Average occupied blocks per tick, per requestor ((Count/Tick))
board.cache_hierarchy.clusters.l1icache.tags.avgOccs::processor.cores.core.inst     0.985360                       # Average percentage of cache occupancy ((Ratio/Tick))
board.cache_hierarchy.clusters.l1icache.tags.avgOccs::total     0.985360                       # Average percentage of cache occupancy ((Ratio/Tick))
board.cache_hierarchy.clusters.l1icache.tags.occupanciesTaskId::1024          512                       # Occupied blocks per task id (Count)
board.cache_hierarchy.clusters.l1icache.tags.ageTaskId_1024::0          121                       # Occupied blocks per task id, per block age (Count)
board.cache_hierarchy.clusters.l1icache.tags.ageTaskId_1024::1           19                       # Occupied blocks per task id, per block age (Count)
board.cache_hierarchy.clusters.l1icache.tags.ageTaskId_1024::2          154                       # Occupied blocks per task id, per block age (Count)
board.cache_hierarchy.clusters.l1icache.tags.ageTaskId_1024::3          218                       # Occupied blocks per task id, per block age (Count)
board.cache_hierarchy.clusters.l1icache.tags.ratioOccsTaskId::1024            1                       # Ratio of occupied blocks and all blocks, per task id (Ratio)
board.cache_hierarchy.clusters.l1icache.tags.tagAccesses     16758065                       # Number of tag accesses (Count)
board.cache_hierarchy.clusters.l1icache.tags.dataAccesses     16758065                       # Number of data accesses (Count)
board.cache_hierarchy.clusters.l1icache.tags.power_state.pwrStateResidencyTicks::UNDEFINED   4050613665                       # Cumulative time (in ticks) in various power states (Tick)
board.cache_hierarchy.clusters.l2_xbar.transDist::ReadResp        33804                       # Transaction distribution (Count)
board.cache_hierarchy.clusters.l2_xbar.transDist::WritebackDirty        44442                       # Transaction distribution (Count)
board.cache_hierarchy.clusters.l2_xbar.transDist::WritebackClean         2253                       # Transaction distribution (Count)
board.cache_hierarchy.clusters.l2_xbar.transDist::CleanEvict         3590                       # Transaction distribution (Count)
board.cache_hierarchy.clusters.l2_xbar.transDist::HardPFReq         4187                       # Transaction distribution (Count)
board.cache_hierarchy.clusters.l2_xbar.transDist::UpgradeReq          275                       # Transaction distribution (Count)
board.cache_hierarchy.clusters.l2_xbar.transDist::SCUpgradeReq            6                       # Transaction distribution (Count)
board.cache_hierarchy.clusters.l2_xbar.transDist::UpgradeResp          281                       # Transaction distribution (Count)
board.cache_hierarchy.clusters.l2_xbar.transDist::ReadExReq        10728                       # Transaction distribution (Count)
board.cache_hierarchy.clusters.l2_xbar.transDist::ReadExResp        10728                       # Transaction distribution (Count)
board.cache_hierarchy.clusters.l2_xbar.transDist::ReadSharedReq        33804                       # Transaction distribution (Count)
board.cache_hierarchy.clusters.l2_xbar.transDist::InvalidateReq            3                       # Transaction distribution (Count)
board.cache_hierarchy.clusters.l2_xbar.transDist::InvalidateResp            3                       # Transaction distribution (Count)
board.cache_hierarchy.clusters.l2_xbar.pktCount_board.cache_hierarchy.clusters.l1dcache.mem_side_port::board.cache_hierarchy.clusters.l2cache.cpu_side_port       125360                       # Packet count per connected requestor and responder (Count)
board.cache_hierarchy.clusters.l2_xbar.pktCount_board.cache_hierarchy.clusters.l1icache.mem_side_port::board.cache_hierarchy.clusters.l2cache.cpu_side_port         7783                       # Packet count per connected requestor and responder (Count)
board.cache_hierarchy.clusters.l2_xbar.pktCount::total       133143                       # Packet count per connected requestor and responder (Count)
board.cache_hierarchy.clusters.l2_xbar.pktSize_board.cache_hierarchy.clusters.l1dcache.mem_side_port::board.cache_hierarchy.clusters.l2cache.cpu_side_port      5220288                       # Cumulative packet size per connected requestor and responder (Byte)
board.cache_hierarchy.clusters.l2_xbar.pktSize_board.cache_hierarchy.clusters.l1icache.mem_side_port::board.cache_hierarchy.clusters.l2cache.cpu_side_port       321152                       # Cumulative packet size per connected requestor and responder (Byte)
board.cache_hierarchy.clusters.l2_xbar.pktSize::total      5541440                       # Cumulative packet size per connected requestor and responder (Byte)
board.cache_hierarchy.clusters.l2_xbar.snoops        10961                       # Total snoops (Count)
board.cache_hierarchy.clusters.l2_xbar.snoopTraffic       297088                       # Total snoop traffic (Byte)
board.cache_hierarchy.clusters.l2_xbar.snoopFanout::samples        55777                       # Request fanout histogram (Count)
board.cache_hierarchy.clusters.l2_xbar.snoopFanout::mean     0.013572                       # Request fanout histogram (Count)
board.cache_hierarchy.clusters.l2_xbar.snoopFanout::stdev     0.115706                       # Request fanout histogram (Count)
board.cache_hierarchy.clusters.l2_xbar.snoopFanout::underflows            0      0.00%      0.00% # Request fanout histogram (Count)
board.cache_hierarchy.clusters.l2_xbar.snoopFanout::0        55020     98.64%     98.64% # Request fanout histogram (Count)
board.cache_hierarchy.clusters.l2_xbar.snoopFanout::1          757      1.36%    100.00% # Request fanout histogram (Count)
board.cache_hierarchy.clusters.l2_xbar.snoopFanout::2            0      0.00%    100.00% # Request fanout histogram (Count)
board.cache_hierarchy.clusters.l2_xbar.snoopFanout::3            0      0.00%    100.00% # Request fanout histogram (Count)
board.cache_hierarchy.clusters.l2_xbar.snoopFanout::4            0      0.00%    100.00% # Request fanout histogram (Count)
board.cache_hierarchy.clusters.l2_xbar.snoopFanout::overflows            0      0.00%    100.00% # Request fanout histogram (Count)
board.cache_hierarchy.clusters.l2_xbar.snoopFanout::min_value            0                       # Request fanout histogram (Count)
board.cache_hierarchy.clusters.l2_xbar.snoopFanout::max_value            1                       # Request fanout histogram (Count)
board.cache_hierarchy.clusters.l2_xbar.snoopFanout::total        55777                       # Request fanout histogram (Count)
board.cache_hierarchy.clusters.l2_xbar.power_state.pwrStateResidencyTicks::UNDEFINED   4050613665                       # Cumulative time (in ticks) in various power states (Tick)
board.cache_hierarchy.clusters.l2_xbar.reqLayer0.occupancy     61554182                       # Layer occupancy (ticks) (Tick)
board.cache_hierarchy.clusters.l2_xbar.reqLayer0.utilization          0.0                       # Layer utilization (Ratio)
board.cache_hierarchy.clusters.l2_xbar.respLayer0.occupancy     41821133                       # Layer occupancy (ticks) (Tick)
board.cache_hierarchy.clusters.l2_xbar.respLayer0.utilization          0.0                       # Layer utilization (Ratio)
board.cache_hierarchy.clusters.l2_xbar.respLayer1.occupancy      2772195                       # Layer occupancy (ticks) (Tick)
board.cache_hierarchy.clusters.l2_xbar.respLayer1.utilization          0.0                       # Layer utilization (Ratio)
board.cache_hierarchy.clusters.l2_xbar.snoop_filter.totRequests        88332                       # Total number of requests made to the snoop filter. (Count)
board.cache_hierarchy.clusters.l2_xbar.snoop_filter.hitSingleRequests        43797                       # Number of requests hitting in the snoop filter with a single holder of the requested data. (Count)
board.cache_hierarchy.clusters.l2_xbar.snoop_filter.hitMultiRequests            0                       # Number of requests hitting in the snoop filter with multiple (>1) holders of the requested data. (Count)
board.cache_hierarchy.clusters.l2_xbar.snoop_filter.totSnoops          757                       # Total number of snoops made to the snoop filter. (Count)
board.cache_hierarchy.clusters.l2_xbar.snoop_filter.hitSingleSnoops          757                       # Number of snoops hitting in the snoop filter with a single holder of the requested data. (Count)
board.cache_hierarchy.clusters.l2_xbar.snoop_filter.hitMultiSnoops            0                       # Number of snoops hitting in the snoop filter with multiple (>1) holders of the requested data. (Count)
board.cache_hierarchy.clusters.l2cache.demandHits::cache_hierarchy.clusters.l1dcache.prefetcher        18884                       # number of demand (read+write) hits (Count)
board.cache_hierarchy.clusters.l2cache.demandHits::processor.cores.core.inst         1068                       # number of demand (read+write) hits (Count)
board.cache_hierarchy.clusters.l2cache.demandHits::processor.cores.core.data        17079                       # number of demand (read+write) hits (Count)
board.cache_hierarchy.clusters.l2cache.demandHits::total        37031                       # number of demand (read+write) hits (Count)
board.cache_hierarchy.clusters.l2cache.overallHits::cache_hierarchy.clusters.l1dcache.prefetcher        18884                       # number of overall hits (Count)
board.cache_hierarchy.clusters.l2cache.overallHits::processor.cores.core.inst         1068                       # number of overall hits (Count)
board.cache_hierarchy.clusters.l2cache.overallHits::processor.cores.core.data        17079                       # number of overall hits (Count)
board.cache_hierarchy.clusters.l2cache.overallHits::total        37031                       # number of overall hits (Count)
board.cache_hierarchy.clusters.l2cache.demandMisses::cache_hierarchy.clusters.l1dcache.prefetcher         2449                       # number of demand (read+write) misses (Count)
board.cache_hierarchy.clusters.l2cache.demandMisses::processor.cores.core.inst         1697                       # number of demand (read+write) misses (Count)
board.cache_hierarchy.clusters.l2cache.demandMisses::processor.cores.core.data         3355                       # number of demand (read+write) misses (Count)
board.cache_hierarchy.clusters.l2cache.demandMisses::total         7501                       # number of demand (read+write) misses (Count)
board.cache_hierarchy.clusters.l2cache.overallMisses::cache_hierarchy.clusters.l1dcache.prefetcher         2449                       # number of overall misses (Count)
board.cache_hierarchy.clusters.l2cache.overallMisses::processor.cores.core.inst         1697                       # number of overall misses (Count)
board.cache_hierarchy.clusters.l2cache.overallMisses::processor.cores.core.data         3355                       # number of overall misses (Count)
board.cache_hierarchy.clusters.l2cache.overallMisses::total         7501                       # number of overall misses (Count)
board.cache_hierarchy.clusters.l2cache.demandMissLatency::cache_hierarchy.clusters.l1dcache.prefetcher    238994298                       # number of demand (read+write) miss ticks (Tick)
board.cache_hierarchy.clusters.l2cache.demandMissLatency::processor.cores.core.inst    141781077                       # number of demand (read+write) miss ticks (Tick)
board.cache_hierarchy.clusters.l2cache.demandMissLatency::processor.cores.core.data    268820577                       # number of demand (read+write) miss ticks (Tick)
board.cache_hierarchy.clusters.l2cache.demandMissLatency::total    649595952                       # number of demand (read+write) miss ticks (Tick)
board.cache_hierarchy.clusters.l2cache.overallMissLatency::cache_hierarchy.clusters.l1dcache.prefetcher    238994298                       # number of overall miss ticks (Tick)
board.cache_hierarchy.clusters.l2cache.overallMissLatency::processor.cores.core.inst    141781077                       # number of overall miss ticks (Tick)
board.cache_hierarchy.clusters.l2cache.overallMissLatency::processor.cores.core.data    268820577                       # number of overall miss ticks (Tick)
board.cache_hierarchy.clusters.l2cache.overallMissLatency::total    649595952                       # number of overall miss ticks (Tick)
board.cache_hierarchy.clusters.l2cache.demandAccesses::cache_hierarchy.clusters.l1dcache.prefetcher        21333                       # number of demand (read+write) accesses (Count)
board.cache_hierarchy.clusters.l2cache.demandAccesses::processor.cores.core.inst         2765                       # number of demand (read+write) accesses (Count)
board.cache_hierarchy.clusters.l2cache.demandAccesses::processor.cores.core.data        20434                       # number of demand (read+write) accesses (Count)
board.cache_hierarchy.clusters.l2cache.demandAccesses::total        44532                       # number of demand (read+write) accesses (Count)
board.cache_hierarchy.clusters.l2cache.overallAccesses::cache_hierarchy.clusters.l1dcache.prefetcher        21333                       # number of overall (read+write) accesses (Count)
board.cache_hierarchy.clusters.l2cache.overallAccesses::processor.cores.core.inst         2765                       # number of overall (read+write) accesses (Count)
board.cache_hierarchy.clusters.l2cache.overallAccesses::processor.cores.core.data        20434                       # number of overall (read+write) accesses (Count)
board.cache_hierarchy.clusters.l2cache.overallAccesses::total        44532                       # number of overall (read+write) accesses (Count)
board.cache_hierarchy.clusters.l2cache.demandMissRate::cache_hierarchy.clusters.l1dcache.prefetcher     0.114799                       # miss rate for demand accesses (Ratio)
board.cache_hierarchy.clusters.l2cache.demandMissRate::processor.cores.core.inst     0.613743                       # miss rate for demand accesses (Ratio)
board.cache_hierarchy.clusters.l2cache.demandMissRate::processor.cores.core.data     0.164187                       # miss rate for demand accesses (Ratio)
board.cache_hierarchy.clusters.l2cache.demandMissRate::total     0.168441                       # miss rate for demand accesses (Ratio)
board.cache_hierarchy.clusters.l2cache.overallMissRate::cache_hierarchy.clusters.l1dcache.prefetcher     0.114799                       # miss rate for overall accesses (Ratio)
board.cache_hierarchy.clusters.l2cache.overallMissRate::processor.cores.core.inst     0.613743                       # miss rate for overall accesses (Ratio)
board.cache_hierarchy.clusters.l2cache.overallMissRate::processor.cores.core.data     0.164187                       # miss rate for overall accesses (Ratio)
board.cache_hierarchy.clusters.l2cache.overallMissRate::total     0.168441                       # miss rate for overall accesses (Ratio)
board.cache_hierarchy.clusters.l2cache.demandAvgMissLatency::cache_hierarchy.clusters.l1dcache.prefetcher 97588.525112                       # average overall miss latency in ticks ((Tick/Count))
board.cache_hierarchy.clusters.l2cache.demandAvgMissLatency::processor.cores.core.inst 83548.071302                       # average overall miss latency in ticks ((Tick/Count))
board.cache_hierarchy.clusters.l2cache.demandAvgMissLatency::processor.cores.core.data 80125.358271                       # average overall miss latency in ticks ((Tick/Count))
board.cache_hierarchy.clusters.l2cache.demandAvgMissLatency::total 86601.246767                       # average overall miss latency in ticks ((Tick/Count))
board.cache_hierarchy.clusters.l2cache.overallAvgMissLatency::cache_hierarchy.clusters.l1dcache.prefetcher 97588.525112                       # average overall miss latency ((Tick/Count))
board.cache_hierarchy.clusters.l2cache.overallAvgMissLatency::processor.cores.core.inst 83548.071302                       # average overall miss latency ((Tick/Count))
board.cache_hierarchy.clusters.l2cache.overallAvgMissLatency::processor.cores.core.data 80125.358271                       # average overall miss latency ((Tick/Count))
board.cache_hierarchy.clusters.l2cache.overallAvgMissLatency::total 86601.246767                       # average overall miss latency ((Tick/Count))
board.cache_hierarchy.clusters.l2cache.blockedCycles::no_mshrs           89                       # number of cycles access was blocked (Cycle)
board.cache_hierarchy.clusters.l2cache.blockedCycles::no_targets            0                       # number of cycles access was blocked (Cycle)
board.cache_hierarchy.clusters.l2cache.blockedCauses::no_mshrs            5                       # number of times access was blocked (Count)
board.cache_hierarchy.clusters.l2cache.blockedCauses::no_targets            0                       # number of times access was blocked (Count)
board.cache_hierarchy.clusters.l2cache.avgBlocked::no_mshrs    17.800000                       # average number of cycles each access was blocked ((Cycle/Count))
board.cache_hierarchy.clusters.l2cache.avgBlocked::no_targets          nan                       # average number of cycles each access was blocked ((Cycle/Count))
board.cache_hierarchy.clusters.l2cache.writebacks::writebacks         4642                       # number of writebacks (Count)
board.cache_hierarchy.clusters.l2cache.writebacks::total         4642                       # number of writebacks (Count)
board.cache_hierarchy.clusters.l2cache.demandMshrHits::cache_hierarchy.clusters.l1dcache.prefetcher          590                       # number of demand (read+write) MSHR hits (Count)
board.cache_hierarchy.clusters.l2cache.demandMshrHits::processor.cores.core.data            4                       # number of demand (read+write) MSHR hits (Count)
board.cache_hierarchy.clusters.l2cache.demandMshrHits::total          594                       # number of demand (read+write) MSHR hits (Count)
board.cache_hierarchy.clusters.l2cache.overallMshrHits::cache_hierarchy.clusters.l1dcache.prefetcher          590                       # number of overall MSHR hits (Count)
board.cache_hierarchy.clusters.l2cache.overallMshrHits::processor.cores.core.data            4                       # number of overall MSHR hits (Count)
board.cache_hierarchy.clusters.l2cache.overallMshrHits::total          594                       # number of overall MSHR hits (Count)
board.cache_hierarchy.clusters.l2cache.demandMshrMisses::cache_hierarchy.clusters.l1dcache.prefetcher         1859                       # number of demand (read+write) MSHR misses (Count)
board.cache_hierarchy.clusters.l2cache.demandMshrMisses::processor.cores.core.inst         1697                       # number of demand (read+write) MSHR misses (Count)
board.cache_hierarchy.clusters.l2cache.demandMshrMisses::processor.cores.core.data         3351                       # number of demand (read+write) MSHR misses (Count)
board.cache_hierarchy.clusters.l2cache.demandMshrMisses::total         6907                       # number of demand (read+write) MSHR misses (Count)
board.cache_hierarchy.clusters.l2cache.overallMshrMisses::cache_hierarchy.clusters.l1dcache.prefetcher         1859                       # number of overall MSHR misses (Count)
board.cache_hierarchy.clusters.l2cache.overallMshrMisses::cache_hierarchy.clusters.l2cache.prefetcher         3434                       # number of overall MSHR misses (Count)
board.cache_hierarchy.clusters.l2cache.overallMshrMisses::processor.cores.core.inst         1697                       # number of overall MSHR misses (Count)
board.cache_hierarchy.clusters.l2cache.overallMshrMisses::processor.cores.core.data         3351                       # number of overall MSHR misses (Count)
board.cache_hierarchy.clusters.l2cache.overallMshrMisses::total        10341                       # number of overall MSHR misses (Count)
board.cache_hierarchy.clusters.l2cache.demandMshrMissLatency::cache_hierarchy.clusters.l1dcache.prefetcher    191684560                       # number of demand (read+write) MSHR miss ticks (Tick)
board.cache_hierarchy.clusters.l2cache.demandMshrMissLatency::processor.cores.core.inst    141215976                       # number of demand (read+write) MSHR miss ticks (Tick)
board.cache_hierarchy.clusters.l2cache.demandMshrMissLatency::processor.cores.core.data    267519879                       # number of demand (read+write) MSHR miss ticks (Tick)
board.cache_hierarchy.clusters.l2cache.demandMshrMissLatency::total    600420415                       # number of demand (read+write) MSHR miss ticks (Tick)
board.cache_hierarchy.clusters.l2cache.overallMshrMissLatency::cache_hierarchy.clusters.l1dcache.prefetcher    191684560                       # number of overall MSHR miss ticks (Tick)
board.cache_hierarchy.clusters.l2cache.overallMshrMissLatency::cache_hierarchy.clusters.l2cache.prefetcher    271736657                       # number of overall MSHR miss ticks (Tick)
board.cache_hierarchy.clusters.l2cache.overallMshrMissLatency::processor.cores.core.inst    141215976                       # number of overall MSHR miss ticks (Tick)
board.cache_hierarchy.clusters.l2cache.overallMshrMissLatency::processor.cores.core.data    267519879                       # number of overall MSHR miss ticks (Tick)
board.cache_hierarchy.clusters.l2cache.overallMshrMissLatency::total    872157072                       # number of overall MSHR miss ticks (Tick)
board.cache_hierarchy.clusters.l2cache.demandMshrMissRate::cache_hierarchy.clusters.l1dcache.prefetcher     0.087142                       # mshr miss ratio for demand accesses (Ratio)
board.cache_hierarchy.clusters.l2cache.demandMshrMissRate::processor.cores.core.inst     0.613743                       # mshr miss ratio for demand accesses (Ratio)
board.cache_hierarchy.clusters.l2cache.demandMshrMissRate::processor.cores.core.data     0.163991                       # mshr miss ratio for demand accesses (Ratio)
board.cache_hierarchy.clusters.l2cache.demandMshrMissRate::total     0.155102                       # mshr miss ratio for demand accesses (Ratio)
board.cache_hierarchy.clusters.l2cache.overallMshrMissRate::cache_hierarchy.clusters.l1dcache.prefetcher     0.087142                       # mshr miss ratio for overall accesses (Ratio)
board.cache_hierarchy.clusters.l2cache.overallMshrMissRate::cache_hierarchy.clusters.l2cache.prefetcher          inf                       # mshr miss ratio for overall accesses (Ratio)
board.cache_hierarchy.clusters.l2cache.overallMshrMissRate::processor.cores.core.inst     0.613743                       # mshr miss ratio for overall accesses (Ratio)
board.cache_hierarchy.clusters.l2cache.overallMshrMissRate::processor.cores.core.data     0.163991                       # mshr miss ratio for overall accesses (Ratio)
board.cache_hierarchy.clusters.l2cache.overallMshrMissRate::total     0.232215                       # mshr miss ratio for overall accesses (Ratio)
board.cache_hierarchy.clusters.l2cache.demandAvgMshrMissLatency::cache_hierarchy.clusters.l1dcache.prefetcher 103111.651425                       # average overall mshr miss latency ((Tick/Count))
board.cache_hierarchy.clusters.l2cache.demandAvgMshrMissLatency::processor.cores.core.inst 83215.071302                       # average overall mshr miss latency ((Tick/Count))
board.cache_hierarchy.clusters.l2cache.demandAvgMshrMissLatency::processor.cores.core.data 79832.849597                       # average overall mshr miss latency ((Tick/Count))
board.cache_hierarchy.clusters.l2cache.demandAvgMshrMissLatency::total 86929.262343                       # average overall mshr miss latency ((Tick/Count))
board.cache_hierarchy.clusters.l2cache.overallAvgMshrMissLatency::cache_hierarchy.clusters.l1dcache.prefetcher 103111.651425                       # average overall mshr miss latency ((Tick/Count))
board.cache_hierarchy.clusters.l2cache.overallAvgMshrMissLatency::cache_hierarchy.clusters.l2cache.prefetcher 79131.233838                       # average overall mshr miss latency ((Tick/Count))
board.cache_hierarchy.clusters.l2cache.overallAvgMshrMissLatency::processor.cores.core.inst 83215.071302                       # average overall mshr miss latency ((Tick/Count))
board.cache_hierarchy.clusters.l2cache.overallAvgMshrMissLatency::processor.cores.core.data 79832.849597                       # average overall mshr miss latency ((Tick/Count))
[...]
board.processor.cores.core.fetch.nisnDist::2      1268561     10.63%     53.85% # Number of instructions fetched each cycle (Total) (Count)
board.processor.cores.core.fetch.nisnDist::3       982788      8.24%     62.09% # Number of instructions fetched each cycle (Total) (Count)
board.processor.cores.core.fetch.nisnDist::4       466952      3.91%     66.00% # Number of instructions fetched each cycle (Total) (Count)
board.processor.cores.core.fetch.nisnDist::5      1013924      8.50%     74.50% # Number of instructions fetched each cycle (Total) (Count)
board.processor.cores.core.fetch.nisnDist::6       458121      3.84%     78.34% # Number of instructions fetched each cycle (Total) (Count)
board.processor.cores.core.fetch.nisnDist::7       317236      2.66%     81.00% # Number of instructions fetched each cycle (Total) (Count)
board.processor.cores.core.fetch.nisnDist::8      2266809     19.00%    100.00% # Number of instructions fetched each cycle (Total) (Count)
board.processor.cores.core.fetch.nisnDist::overflows            0      0.00%    100.00% # Number of instructions fetched each cycle (Total) (Count)
board.processor.cores.core.fetch.nisnDist::min_value            0                       # Number of instructions fetched each cycle (Total) (Count)
board.processor.cores.core.fetch.nisnDist::max_value            8                       # Number of instructions fetched each cycle (Total) (Count)
board.processor.cores.core.fetch.nisnDist::total     11929473                       # Number of instructions fetched each cycle (Total) (Count)
board.processor.cores.core.fetchStats0.numInsts     36522402                       # Number of instructions fetched (thread level) (Count)
board.processor.cores.core.fetchStats0.numOps            0                       # Number of ops (including micro ops) fetched (thread level) (Count)
board.processor.cores.core.fetchStats0.fetchRate     3.002498                       # Number of inst fetches per cycle ((Count/Cycle))
board.processor.cores.core.fetchStats0.numBranches      6973781                       # Number of branches fetched (Count)
board.processor.cores.core.fetchStats0.branchRate     0.573313                       # Number of branch fetches per cycle (Ratio)
board.processor.cores.core.fetchStats0.icacheStallCycles       226846                       # ICache total stall cycles (Cycle)
board.processor.cores.core.fetchStats0.numFetchSuspends            0                       # Number of times Execute suspended instruction fetching (Count)
board.processor.cores.core.iew.idleCycles            0                       # Number of cycles IEW is idle (Cycle)
board.processor.cores.core.iew.squashCycles       357598                       # Number of cycles IEW is squashing (Cycle)
board.processor.cores.core.iew.blockCycles      2815107                       # Number of cycles IEW is blocking (Cycle)
board.processor.cores.core.iew.unblockCycles       116544                       # Number of cycles IEW is unblocking (Cycle)
board.processor.cores.core.iew.dispatchedInsts     28318294                       # Number of instructions dispatched to IQ (Count)
board.processor.cores.core.iew.dispSquashedInsts        70367                       # Number of squashed instructions skipped by dispatch (Count)
board.processor.cores.core.iew.dispLoadInsts      4136322                       # Number of dispatched load instructions (Count)
board.processor.cores.core.iew.dispStoreInsts      1680707                       # Number of dispatched store instructions (Count)
board.processor.cores.core.iew.dispNonSpecInsts        73863                       # Number of dispatched non-speculative instructions (Count)
board.processor.cores.core.iew.iqFullEvents        17856                       # Number of times the IQ has become full, causing a stall (Count)
board.processor.cores.core.iew.lsqFullEvents        19204                       # Number of times the LSQ has become full, causing a stall (Count)
board.processor.cores.core.iew.memOrderViolationEvents         1133                       # Number of memory order violations (Count)
board.processor.cores.core.iew.predictedTakenIncorrect       254461                       # Number of branches that were predicted taken incorrectly (Count)
board.processor.cores.core.iew.predictedNotTakenIncorrect       146984                       # Number of branches that were predicted not taken incorrectly (Count)
board.processor.cores.core.iew.branchMispredicts       401445                       # Number of branch mispredicts detected at execute (Count)
board.processor.cores.core.iew.instsToCommit     22595876                       # Cumulative count of insts sent to commit (Count)
board.processor.cores.core.iew.writebackCount     22422337                       # Cumulative count of insts written-back (Count)
board.processor.cores.core.iew.producerInst     14840354                       # Number of instructions producing a value (Count)
board.processor.cores.core.iew.consumerInst     19935857                       # Number of instructions consuming a value (Count)
board.processor.cores.core.iew.wbRate        1.843335                       # Insts written-back per cycle ((Count/Cycle))
board.processor.cores.core.iew.wbFanout      0.744405                       # Average fanout of values written-back ((Count/Count))
board.processor.cores.core.lsq0.forwLoads       330847                       # Number of loads that had data forwarded from stores (Count)
board.processor.cores.core.lsq0.squashedLoads      2076544                       # Number of loads squashed (Count)
board.processor.cores.core.lsq0.ignoredResponses          812                       # Number of memory responses ignored because the instruction is squashed (Count)
board.processor.cores.core.lsq0.memOrderViolation         1133                       # Number of memory ordering violations (Count)
board.processor.cores.core.lsq0.squashedStores       835935                       # Number of stores squashed (Count)
board.processor.cores.core.lsq0.rescheduledLoads          434                       # Number of loads that were rescheduled (Count)
board.processor.cores.core.lsq0.blockedByCache           19                       # Number of times an access to memory failed due to the cache being blocked (Count)
board.processor.cores.core.lsq0.loadToUse::samples      2059778                       # Distribution of cycle latency between the first time a load is issued and its completion (Unspecified)
board.processor.cores.core.lsq0.loadToUse::mean     2.417010                       # Distribution of cycle latency between the first time a load is issued and its completion (Unspecified)
board.processor.cores.core.lsq0.loadToUse::stdev     4.351844                       # Distribution of cycle latency between the first time a load is issued and its completion (Unspecified)
board.processor.cores.core.lsq0.loadToUse::0-9      2046276     99.34%     99.34% # Distribution of cycle latency between the first time a load is issued and its completion (Unspecified)
board.processor.cores.core.lsq0.loadToUse::10-19        12091      0.59%     99.93% # Distribution of cycle latency between the first time a load is issued and its completion (Unspecified)
board.processor.cores.core.lsq0.loadToUse::20-29          456      0.02%     99.95% # Distribution of cycle latency between the first time a load is issued and its completion (Unspecified)
board.processor.cores.core.lsq0.loadToUse::30-39          377      0.02%     99.97% # Distribution of cycle latency between the first time a load is issued and its completion (Unspecified)
board.processor.cores.core.lsq0.loadToUse::40-49          126      0.01%     99.98% # Distribution of cycle latency between the first time a load is issued and its completion (Unspecified)
board.processor.cores.core.lsq0.loadToUse::50-59            5      0.00%     99.98% # Distribution of cycle latency between the first time a load is issued and its completion (Unspecified)
board.processor.cores.core.lsq0.loadToUse::60-69            2      0.00%     99.98% # Distribution of cycle latency between the first time a load is issued and its completion (Unspecified)
board.processor.cores.core.lsq0.loadToUse::70-79            2      0.00%     99.98% # Distribution of cycle latency between the first time a load is issued and its completion (Unspecified)
board.processor.cores.core.lsq0.loadToUse::80-89            2      0.00%     99.98% # Distribution of cycle latency between the first time a load is issued and its completion (Unspecified)
board.processor.cores.core.lsq0.loadToUse::90-99            2      0.00%     99.98% # Distribution of cycle latency between the first time a load is issued and its completion (Unspecified)
board.processor.cores.core.lsq0.loadToUse::100-109            6      0.00%     99.98% # Distribution of cycle latency between the first time a load is issued and its completion (Unspecified)
board.processor.cores.core.lsq0.loadToUse::110-119            4      0.00%     99.98% # Distribution of cycle latency between the first time a load is issued and its completion (Unspecified)
board.processor.cores.core.lsq0.loadToUse::130-139            7      0.00%     99.98% # Distribution of cycle latency between the first time a load is issued and its completion (Unspecified)
board.processor.cores.core.lsq0.loadToUse::140-149            8      0.00%     99.98% # Distribution of cycle latency between the first time a load is issued and its completion (Unspecified)
board.processor.cores.core.lsq0.loadToUse::150-159            5      0.00%     99.98% # Distribution of cycle latency between the first time a load is issued and its completion (Unspecified)
board.processor.cores.core.lsq0.loadToUse::160-169           11      0.00%     99.98% # Distribution of cycle latency between the first time a load is issued and its completion (Unspecified)
board.processor.cores.core.lsq0.loadToUse::170-179            6      0.00%     99.98% # Distribution of cycle latency between the first time a load is issued and its completion (Unspecified)
board.processor.cores.core.lsq0.loadToUse::180-189            4      0.00%     99.98% # Distribution of cycle latency between the first time a load is issued and its completion (Unspecified)
board.processor.cores.core.lsq0.loadToUse::190-199           19      0.00%     99.98% # Distribution of cycle latency between the first time a load is issued and its completion (Unspecified)
board.processor.cores.core.lsq0.loadToUse::200-209           14      0.00%     99.98% # Distribution of cycle latency between the first time a load is issued and its completion (Unspecified)
board.processor.cores.core.lsq0.loadToUse::210-219            4      0.00%     99.98% # Distribution of cycle latency between the first time a load is issued and its completion (Unspecified)
board.processor.cores.core.lsq0.loadToUse::220-229           10      0.00%     99.98% # Distribution of cycle latency between the first time a load is issued and its completion (Unspecified)
board.processor.cores.core.lsq0.loadToUse::230-239           19      0.00%     99.98% # Distribution of cycle latency between the first time a load is issued and its completion (Unspecified)
board.processor.cores.core.lsq0.loadToUse::240-249           21      0.00%     99.99% # Distribution of cycle latency between the first time a load is issued and its completion (Unspecified)
board.processor.cores.core.lsq0.loadToUse::250-259          204      0.01%    100.00% # Distribution of cycle latency between the first time a load is issued and its completion (Unspecified)
board.processor.cores.core.lsq0.loadToUse::260-269           13      0.00%    100.00% # Distribution of cycle latency between the first time a load is issued and its completion (Unspecified)
board.processor.cores.core.lsq0.loadToUse::270-279           21      0.00%    100.00% # Distribution of cycle latency between the first time a load is issued and its completion (Unspecified)
board.processor.cores.core.lsq0.loadToUse::280-289            7      0.00%    100.00% # Distribution of cycle latency between the first time a load is issued and its completion (Unspecified)
board.processor.cores.core.lsq0.loadToUse::290-299            1      0.00%    100.00% # Distribution of cycle latency between the first time a load is issued and its completion (Unspecified)
board.processor.cores.core.lsq0.loadToUse::overflows           55      0.00%    100.00% # Distribution of cycle latency between the first time a load is issued and its completion (Unspecified)
board.processor.cores.core.lsq0.loadToUse::min_value            2                       # Distribution of cycle latency between the first time a load is issued and its completion (Unspecified)
board.processor.cores.core.lsq0.loadToUse::max_value          804                       # Distribution of cycle latency between the first time a load is issued and its completion (Unspecified)
board.processor.cores.core.lsq0.loadToUse::total      2059778                       # Distribution of cycle latency between the first time a load is issued and its completion (Unspecified)
board.processor.cores.core.mmu.dtb.readHits            0                       # read hits (Count)
board.processor.cores.core.mmu.dtb.readMisses            0                       # read misses (Count)
board.processor.cores.core.mmu.dtb.readAccesses            0                       # read accesses (Count)
board.processor.cores.core.mmu.dtb.writeHits            0                       # write hits (Count)
board.processor.cores.core.mmu.dtb.writeMisses            0                       # write misses (Count)
board.processor.cores.core.mmu.dtb.writeAccesses            0                       # write accesses (Count)
board.processor.cores.core.mmu.dtb.hits             0                       # Total TLB (read and write) hits (Count)
board.processor.cores.core.mmu.dtb.misses            0                       # Total TLB (read and write) misses (Count)
board.processor.cores.core.mmu.dtb.accesses            0                       # Total TLB (read and write) accesses (Count)
board.processor.cores.core.mmu.dtb.walker.num_4kb_walks            0                       # Completed page walks with 4KB pages (Count)
board.processor.cores.core.mmu.dtb.walker.num_2mb_walks            0                       # Completed page walks with 2MB pages (Count)
board.processor.cores.core.mmu.dtb.walker.power_state.pwrStateResidencyTicks::UNDEFINED   4050613665                       # Cumulative time (in ticks) in various power states (Tick)
board.processor.cores.core.mmu.itb.readHits            0                       # read hits (Count)
board.processor.cores.core.mmu.itb.readMisses            0                       # read misses (Count)
board.processor.cores.core.mmu.itb.readAccesses            0                       # read accesses (Count)
board.processor.cores.core.mmu.itb.writeHits            0                       # write hits (Count)
board.processor.cores.core.mmu.itb.writeMisses            0                       # write misses (Count)
board.processor.cores.core.mmu.itb.writeAccesses            0                       # write accesses (Count)
board.processor.cores.core.mmu.itb.hits             0                       # Total TLB (read and write) hits (Count)
board.processor.cores.core.mmu.itb.misses            0                       # Total TLB (read and write) misses (Count)
board.processor.cores.core.mmu.itb.accesses            0                       # Total TLB (read and write) accesses (Count)
board.processor.cores.core.mmu.itb.walker.num_4kb_walks            0                       # Completed page walks with 4KB pages (Count)
board.processor.cores.core.mmu.itb.walker.num_2mb_walks            0                       # Completed page walks with 2MB pages (Count)
board.processor.cores.core.mmu.itb.walker.power_state.pwrStateResidencyTicks::UNDEFINED   4050613665                       # Cumulative time (in ticks) in various power states (Tick)
board.processor.cores.core.power_state.pwrStateResidencyTicks::ON   4050613665                       # Cumulative time (in ticks) in various power states (Tick)
board.processor.cores.core.rename.squashCycles       357598                       # Number of cycles rename is squashing (Cycle)
board.processor.cores.core.rename.idleCycles      1663010                       # Number of cycles rename is idle (Cycle)
board.processor.cores.core.rename.blockCycles      3390025                       # Number of cycles rename is blocking (Cycle)
board.processor.cores.core.rename.serializeStallCycles       172396                       # count of cycles rename stalled for serializing inst (Cycle)
board.processor.cores.core.rename.runCycles      5591517                       # Number of cycles rename is running (Cycle)
board.processor.cores.core.rename.unblockCycles       754927                       # Number of cycles rename is unblocking (Cycle)
board.processor.cores.core.rename.renamedInsts     31811687                       # Number of instructions processed by rename (Count)
board.processor.cores.core.rename.ROBFullEvents           26                       # Number of times rename has blocked due to ROB full (Count)
board.processor.cores.core.rename.IQFullEvents       496740                       # Number of times rename has blocked due to IQ full (Count)
board.processor.cores.core.rename.LQFullEvents        12138                       # Number of times rename has blocked due to LQ full (Count)
board.processor.cores.core.rename.SQFullEvents        76841                       # Number of times rename has blocked due to SQ full (Count)
board.processor.cores.core.rename.renamedOperands     24301524                       # Number of destination operands rename has renamed (Count)
board.processor.cores.core.rename.lookups     40651262                       # Number of register rename lookups that rename has made (Count)
board.processor.cores.core.rename.intLookups     40035254                       # Number of integer rename lookups (Count)
board.processor.cores.core.rename.fpLookups          375                       # Number of floating rename lookups (Count)
board.processor.cores.core.rename.committedMaps     10626403                       # Number of HB maps that are committed (Count)
board.processor.cores.core.rename.undoneMaps     13675121                       # Number of HB maps that are undone due to squashing (Count)
board.processor.cores.core.rename.serializing         5547                       # count of serializing insts renamed (Count)
board.processor.cores.core.rename.tempSerializing         5538                       # count of temporary serializing insts renamed (Count)
board.processor.cores.core.rename.skidInsts      1555340                       # count of insts added to the skid buffer (Count)
board.processor.cores.core.rob.reads         37744507                       # The number of ROB reads (Count)
board.processor.cores.core.rob.writes        58633027                       # The number of ROB writes (Count)
board.processor.cores.core.thread_0.numInsts     13703225                       # Number of Instructions committed (Count)
board.processor.cores.core.thread_0.numOps     13776858                       # Number of Ops committed (Count)
board.processor.cores.core.thread_0.numMemRefs            0                       # Number of Memory References (Count)
board.processor.cores.core.workload.numSyscalls          228                       # Number of system calls (Count)
board.workload.inst.arm                             0                       # number of arm instructions executed (Count)
board.workload.inst.quiesce                         0                       # number of quiesce instructions executed (Count)

---------- End Simulation Statistics   ----------
