
---------- Begin Simulation Statistics ----------
simSeconds                                   0.005832                       # Number of seconds simulated (Second)
simTicks                                   5832369792                       # Number of ticks simulated (Tick)
finalTick                                  5832369792                       # Number of ticks from beginning of simulation (restored from checkpoints and never reset) (Tick)
simFreq                                  1000000000000                       # The number of ticks per simulated second ((Tick/Second))
hostSeconds                                     84.81                       # Real time elapsed on the host (Second)
hostTickRate                                 68767252                       # The number of ticks simulated per host second (ticks/s) ((Tick/Second))
hostMemory                                    2383096                       # Number of bytes of host memory used (Byte)
simInsts                                     13703248                       # Number of instructions simulated (Count)
simOps                                       13776881                       # Number of ops (including micro ops) simulated (Count)
hostInstRate                                   161570                       # Simulator instruction rate (inst/s) ((Count/Second))
hostOpRate                                     162438                       # Simulator op (including micro ops) rate (op/s) ((Count/Second))
board.cache_hierarchy.clusters.dptw_cache.blockedCycles::no_mshrs            0                       # number of cycles access was blocked (Cycle)
board.cache_hierarchy.clusters.dptw_cache.blockedCycles::no_targets            0                       # number of cycles access was blocked (Cycle)
board.cache_hierarchy.clusters.dptw_cache.blockedCauses::no_mshrs            0                       # number of times access was blocked (Count)
board.cache_hierarchy.clusters.dptw_cache.blockedCauses::no_targets            0                       # number of times access was blocked (Count)
board.cache_hierarchy.clusters.dptw_cache.avgBlocked::no_mshrs          nan                       # average number of cycles each access was blocked ((Cycle/Count))
board.cache_hierarchy.clusters.dptw_cache.avgBlocked::no_targets          nan                       # average number of cycles each access was blocked ((Cycle/Count))
board.cache_hierarchy.clusters.dptw_cache.replacements            0                       # number of replacements (Count)
board.cache_hierarchy.clusters.dptw_cache.power_state.pwrStateResidencyTicks::UNDEFINED   5832369792                       # Cumulative time (in ticks) in various power states (Tick)
board.cache_hierarchy.clusters.dptw_cache.tags.tagsInUse            0                       # Average ticks per tags in use ((Tick/Count))
board.cache_hierarchy.clusters.dptw_cache.tags.totalRefs            0                       # Total number of references to valid blocks. (Count)
board.cache_hierarchy.clusters.dptw_cache.tags.sampledRefs            0                       # Sample count of references to valid blocks. (Count)
board.cache_hierarchy.clusters.dptw_cache.tags.avgRefs          nan                       # Average number of references to valid blocks. ((Count/Count))
board.cache_hierarchy.clusters.dptw_cache.tags.warmupTick            0                       # The tick when the warmup percentage was hit. (Tick)
board.cache_hierarchy.clusters.dptw_cache.tags.tagAccesses            0                       # Number of tag accesses (Count)
board.cache_hierarchy.clusters.dptw_cache.tags.dataAccesses            0                       # Number of data accesses (Count)
board.cache_hierarchy.clusters.dptw_cache.tags.power_state.pwrStateResidencyTicks::UNDEFINED   5832369792                       # Cumulative time (in ticks) in various power states (Tick)
board.cache_hierarchy.clusters.iptw_cache.blockedCycles::no_mshrs            0                       # number of cycles access was blocked (Cycle)
board.cache_hierarchy.clusters.iptw_cache.blockedCycles::no_targets            0                       # number of cycles access was blocked (Cycle)
board.cache_hierarchy.clusters.iptw_cache.blockedCauses::no_mshrs            0                       # number of times access was blocked (Count)
board.cache_hierarchy.clusters.iptw_cache.blockedCauses::no_targets            0                       # number of times access was blocked (Count)
board.cache_hierarchy.clusters.iptw_cache.avgBlocked::no_mshrs          nan                       # average number of cycles each access was blocked ((Cycle/Count))
board.cache_hierarchy.clusters.iptw_cache.avgBlocked::no_targets          nan                       # average number of cycles each access was blocked ((Cycle/Count))
board.cache_hierarchy.clusters.iptw_cache.replacements            0                       # number of replacements (Count)
board.cache_hierarchy.clusters.iptw_cache.power_state.pwrStateResidencyTicks::UNDEFINED   5832369792                       # Cumulative time (in ticks) in various power states (Tick)
board.cache_hierarchy.clusters.iptw_cache.tags.tagsInUse            0                       # Average ticks per tags in use ((Tick/Count))
board.cache_hierarchy.clusters.iptw_cache.tags.totalRefs            0                       # Total number of references to valid blocks. (Count)
board.cache_hierarchy.clusters.iptw_cache.tags.sampledRefs            0                       # Sample count of references to valid blocks. (Count)
board.cache_hierarchy.clusters.iptw_cache.tags.avgRefs          nan                       # Average number of references to valid blocks. ((Count/Count))
board.cache_hierarchy.clusters.iptw_cache.tags.warmupTick            0                       # The tick when the warmup percentage was hit. (Tick)
board.cache_hierarchy.clusters.iptw_cache.tags.tagAccesses            0                       # Number of tag accesses (Count)
board.cache_hierarchy.clusters.iptw_cache.tags.dataAccesses            0                       # Number of data accesses (Count)
board.cache_hierarchy.clusters.iptw_cache.tags.power_state.pwrStateResidencyTicks::UNDEFINED   5832369792                       # Cumulative time (in ticks) in various power states (Tick)
board.cache_hierarchy.clusters.l1dcache.demandHits::processor.cores.core.data      2874151                       # number of demand (read+write) hits (Count)
board.cache_hierarchy.clusters.l1dcache.demandHits::total      2874151                       # number of demand (read+write) hits (Count)
board.cache_hierarchy.clusters.l1dcache.overallHits::processor.cores.core.data      2874151                       # number of overall hits (Count)
board.cache_hierarchy.clusters.l1dcache.overallHits::total      2874151                       # number of overall hits (Count)
board.cache_hierarchy.clusters.l1dcache.demandMisses::processor.cores.core.data        36404                       # number of demand (read+write) misses (Count)
board.cache_hierarchy.clusters.l1dcache.demandMisses::total        36404                       # number of demand (read+write) misses (Count)
board.cache_hierarchy.clusters.l1dcache.overallMisses::processor.cores.core.data        36404                       # number of overall misses (Count)
board.cache_hierarchy.clusters.l1dcache.overallMisses::total        36404                       # number of overall misses (Count)
board.cache_hierarchy.clusters.l1dcache.demandMissLatency::processor.cores.core.data   1048027257                       # number of demand (read+write) miss ticks (Tick)
board.cache_hierarchy.clusters.l1dcache.demandMissLatency::total   1048027257                       # number of demand (read+write) miss ticks (Tick)
board.cache_hierarchy.clusters.l1dcache.overallMissLatency::processor.cores.core.data   1048027257                       # number of overall miss ticks (Tick)
board.cache_hierarchy.clusters.l1dcache.overallMissLatency::total   1048027257                       # number of overall miss ticks (Tick)
board.cache_hierarchy.clusters.l1dcache.demandAccesses::processor.cores.core.data      2910555                       # number of demand (read+write) accesses (Count)
board.cache_hierarchy.clusters.l1dcache.demandAccesses::total      2910555                       # number of demand (read+write) accesses (Count)
board.cache_hierarchy.clusters.l1dcache.overallAccesses::processor.cores.core.data      2910555                       # number of overall (read+write) accesses (Count)
board.cache_hierarchy.clusters.l1dcache.overallAccesses::total      2910555                       # number of overall (read+write) accesses (Count)
board.cache_hierarchy.clusters.l1dcache.demandMissRate::processor.cores.core.data     0.012508                       # miss rate for demand accesses (Ratio)
board.cache_hierarchy.clusters.l1dcache.demandMissRate::total     0.012508                       # miss rate for demand accesses (Ratio)
board.cache_hierarchy.clusters.l1dcache.overallMissRate::processor.cores.core.data     0.012508                       # miss rate for overall accesses (Ratio)
board.cache_hierarchy.clusters.l1dcache.overallMissRate::total     0.012508                       # miss rate for overall accesses (Ratio)
board.cache_hierarchy.clusters.l1dcache.demandAvgMissLatency::processor.cores.core.data 28788.794006                       # average overall miss latency in ticks ((Tick/Count))
board.cache_hierarchy.clusters.l1dcache.demandAvgMissLatency::total 28788.794006                       # average overall miss latency in ticks ((Tick/Count))
board.cache_hierarchy.clusters.l1dcache.overallAvgMissLatency::processor.cores.core.data 28788.794006                       # average overall miss latency ((Tick/Count))
board.cache_hierarchy.clusters.l1dcache.overallAvgMissLatency::total 28788.794006                       # average overall miss latency ((Tick/Count))
board.cache_hierarchy.clusters.l1dcache.blockedCycles::no_mshrs            0                       # number of cycles access was blocked (Cycle)
board.cache_hierarchy.clusters.l1dcache.blockedCycles::no_targets         1576                       # number of cycles access was blocked (Cycle)
board.cache_hierarchy.clusters.l1dcache.blockedCauses::no_mshrs            0                       # number of times access was blocked (Count)
board.cache_hierarchy.clusters.l1dcache.blockedCauses::no_targets           14                       # number of times access was blocked (Count)
board.cache_hierarchy.clusters.l1dcache.avgBlocked::no_mshrs          nan                       # average number of cycles each access was blocked ((Cycle/Count))
board.cache_hierarchy.clusters.l1dcache.avgBlocked::no_targets   112.571429                       # average number of cycles each access was blocked ((Cycle/Count))
board.cache_hierarchy.clusters.l1dcache.writebacks::writebacks        35571                       # number of writebacks (Count)
board.cache_hierarchy.clusters.l1dcache.writebacks::total        35571                       # number of writebacks (Count)
board.cache_hierarchy.clusters.l1dcache.demandMshrHits::processor.cores.core.data        14254                       # number of demand (read+write) MSHR hits (Count)
board.cache_hierarchy.clusters.l1dcache.demandMshrHits::total        14254                       # number of demand (read+write) MSHR hits (Count)
board.cache_hierarchy.clusters.l1dcache.overallMshrHits::processor.cores.core.data        14254                       # number of overall MSHR hits (Count)
board.cache_hierarchy.clusters.l1dcache.overallMshrHits::total        14254                       # number of overall MSHR hits (Count)
board.cache_hierarchy.clusters.l1dcache.demandMshrMisses::processor.cores.core.data        22150                       # number of demand (read+write) MSHR misses (Count)
board.cache_hierarchy.clusters.l1dcache.demandMshrMisses::total        22150                       # number of demand (read+write) MSHR misses (Count)
board.cache_hierarchy.clusters.l1dcache.overallMshrMisses::cache_hierarchy.clusters.l1dcache.prefetcher        14534                       # number of overall MSHR misses (Count)
board.cache_hierarchy.clusters.l1dcache.overallMshrMisses::processor.cores.core.data        22150                       # number of overall MSHR misses (Count)
board.cache_hierarchy.clusters.l1dcache.overallMshrMisses::total        36684                       # number of overall MSHR misses (Count)
board.cache_hierarchy.clusters.l1dcache.demandMshrMissLatency::processor.cores.core.data    382114170                       # number of demand (read+write) MSHR miss ticks (Tick)
board.cache_hierarchy.clusters.l1dcache.demandMshrMissLatency::total    382114170                       # number of demand (read+write) MSHR miss ticks (Tick)
board.cache_hierarchy.clusters.l1dcache.overallMshrMissLatency::cache_hierarchy.clusters.l1dcache.prefetcher    333819909                       # number of overall MSHR miss ticks (Tick)
board.cache_hierarchy.clusters.l1dcache.overallMshrMissLatency::processor.cores.core.data    382114170                       # number of overall MSHR miss ticks (Tick)
board.cache_hierarchy.clusters.l1dcache.overallMshrMissLatency::total    715934079                       # number of overall MSHR miss ticks (Tick)
board.cache_hierarchy.clusters.l1dcache.demandMshrMissRate::processor.cores.core.data     0.007610                       # mshr miss ratio for demand accesses (Ratio)
board.cache_hierarchy.clusters.l1dcache.demandMshrMissRate::total     0.007610                       # mshr miss ratio for demand accesses (Ratio)
board.cache_hierarchy.clusters.l1dcache.overallMshrMissRate::cache_hierarchy.clusters.l1dcache.prefetcher          inf                       # mshr miss ratio for overall accesses (Ratio)
board.cache_hierarchy.clusters.l1dcache.overallMshrMissRate::processor.cores.core.data     0.007610                       # mshr miss ratio for overall accesses (Ratio)
board.cache_hierarchy.clusters.l1dcache.overallMshrMissRate::total     0.012604                       # mshr miss ratio for overall accesses (Ratio)
board.cache_hierarchy.clusters.l1dcache.demandAvgMshrMissLatency::processor.cores.core.data 17251.204063                       # average overall mshr miss latency ((Tick/Count))
board.cache_hierarchy.clusters.l1dcache.demandAvgMshrMissLatency::total 17251.204063                       # average overall mshr miss latency ((Tick/Count))
board.cache_hierarchy.clusters.l1dcache.overallAvgMshrMissLatency::cache_hierarchy.clusters.l1dcache.prefetcher 22968.206206                       # average overall mshr miss latency ((Tick/Count))
board.cache_hierarchy.clusters.l1dcache.overallAvgMshrMissLatency::processor.cores.core.data 17251.204063                       # average overall mshr miss latency ((Tick/Count))
board.cache_hierarchy.clusters.l1dcache.overallAvgMshrMissLatency::total 19516.249019                       # average overall mshr miss latency ((Tick/Count))
board.cache_hierarchy.clusters.l1dcache.replacements        36838                       # number of replacements (Count)
board.cache_hierarchy.clusters.l1dcache.HardPFReq.mshrMisses::cache_hierarchy.clusters.l1dcache.prefetcher        14534                       # number of HardPFReq MSHR misses (Count)
board.cache_hierarchy.clusters.l1dcache.HardPFReq.mshrMisses::total        14534                       # number of HardPFReq MSHR misses (Count)
board.cache_hierarchy.clusters.l1dcache.HardPFReq.mshrMissLatency::cache_hierarchy.clusters.l1dcache.prefetcher    333819909                       # number of HardPFReq MSHR miss ticks (Tick)
board.cache_hierarchy.clusters.l1dcache.HardPFReq.mshrMissLatency::total    333819909                       # number of HardPFReq MSHR miss ticks (Tick)
board.cache_hierarchy.clusters.l1dcache.HardPFReq.mshrMissRate::cache_hierarchy.clusters.l1dcache.prefetcher          inf                       # mshr miss rate for HardPFReq accesses (Ratio)
board.cache_hierarchy.clusters.l1dcache.HardPFReq.mshrMissRate::total          inf                       # mshr miss rate for HardPFReq accesses (Ratio)
board.cache_hierarchy.clusters.l1dcache.HardPFReq.avgMshrMissLatency::cache_hierarchy.clusters.l1dcache.prefetcher 22968.206206                       # average HardPFReq mshr miss latency ((Tick/Count))
board.cache_hierarchy.clusters.l1dcache.HardPFReq.avgMshrMissLatency::total 22968.206206                       # average HardPFReq mshr miss latency ((Tick/Count))
board.cache_hierarchy.clusters.l1dcache.LoadLockedReq.hits::processor.cores.core.data         4159                       # number of LoadLockedReq hits (Count)
board.cache_hierarchy.clusters.l1dcache.LoadLockedReq.hits::total         4159                       # number of LoadLockedReq hits (Count)
board.cache_hierarchy.clusters.l1dcache.LoadLockedReq.misses::processor.cores.core.data           25                       # number of LoadLockedReq misses (Count)
board.cache_hierarchy.clusters.l1dcache.LoadLockedReq.misses::total           25                       # number of LoadLockedReq misses (Count)
board.cache_hierarchy.clusters.l1dcache.LoadLockedReq.missLatency::processor.cores.core.data       502830                       # number of LoadLockedReq miss ticks (Tick)
board.cache_hierarchy.clusters.l1dcache.LoadLockedReq.missLatency::total       502830                       # number of LoadLockedReq miss ticks (Tick)
board.cache_hierarchy.clusters.l1dcache.LoadLockedReq.accesses::processor.cores.core.data         4184                       # number of LoadLockedReq accesses(hits+misses) (Count)
board.cache_hierarchy.clusters.l1dcache.LoadLockedReq.accesses::total         4184                       # number of LoadLockedReq accesses(hits+misses) (Count)
board.cache_hierarchy.clusters.l1dcache.LoadLockedReq.missRate::processor.cores.core.data     0.005975                       # miss rate for LoadLockedReq accesses (Ratio)
board.cache_hierarchy.clusters.l1dcache.LoadLockedReq.missRate::total     0.005975                       # miss rate for LoadLockedReq accesses (Ratio)
board.cache_hierarchy.clusters.l1dcache.LoadLockedReq.avgMissLatency::processor.cores.core.data 20113.200000                       # average LoadLockedReq miss latency ((Tick/Count))
board.cache_hierarchy.clusters.l1dcache.LoadLockedReq.avgMissLatency::total 20113.200000                       # average LoadLockedReq miss latency ((Tick/Count))
board.cache_hierarchy.clusters.l1dcache.LoadLockedReq.mshrHits::processor.cores.core.data           20                       # number of LoadLockedReq MSHR hits (Count)
board.cache_hierarchy.clusters.l1dcache.LoadLockedReq.mshrHits::total           20                       # number of LoadLockedReq MSHR hits (Count)
board.cache_hierarchy.clusters.l1dcache.LoadLockedReq.mshrMisses::processor.cores.core.data            5                       # number of LoadLockedReq MSHR misses (Count)
board.cache_hierarchy.clusters.l1dcache.LoadLockedReq.mshrMisses::total            5                       # number of LoadLockedReq MSHR misses (Count)
board.cache_hierarchy.clusters.l1dcache.LoadLockedReq.mshrMissLatency::processor.cores.core.data       201798                       # number of LoadLockedReq MSHR miss ticks (Tick)
board.cache_hierarchy.clusters.l1dcache.LoadLockedReq.mshrMissLatency::total       201798                       # number of LoadLockedReq MSHR miss ticks (Tick)
board.cache_hierarchy.clusters.l1dcache.LoadLockedReq.mshrMissRate::processor.cores.core.data     0.001195                       # mshr miss rate for LoadLockedReq accesses (Ratio)
board.cache_hierarchy.clusters.l1dcache.LoadLockedReq.mshrMissRate::total     0.001195                       # mshr miss rate for LoadLockedReq accesses (Ratio)
board.cache_hierarchy.clusters.l1dcache.LoadLockedReq.avgMshrMissLatency::processor.cores.core.data 40359.600000                       # average LoadLockedReq mshr miss latency ((Tick/Count))
board.cache_hierarchy.clusters.l1dcache.LoadLockedReq.avgMshrMissLatency::total 40359.600000                       # average LoadLockedReq mshr miss latency ((Tick/Count))
board.cache_hierarchy.clusters.l1dcache.ReadReq.hits::processor.cores.core.data      2119946                       # number of ReadReq hits (Count)
board.cache_hierarchy.clusters.l1dcache.ReadReq.hits::total      2119946                       # number of ReadReq hits (Count)
board.cache_hierarchy.clusters.l1dcache.ReadReq.misses::processor.cores.core.data        17086                       # number of ReadReq misses (Count)
board.cache_hierarchy.clusters.l1dcache.ReadReq.misses::total        17086                       # number of ReadReq misses (Count)
board.cache_hierarchy.clusters.l1dcache.ReadReq.missLatency::processor.cores.core.data    124393815                       # number of ReadReq miss ticks (Tick)
board.cache_hierarchy.clusters.l1dcache.ReadReq.missLatency::total    124393815                       # number of ReadReq miss ticks (Tick)
board.cache_hierarchy.clusters.l1dcache.ReadReq.accesses::processor.cores.core.data      2137032                       # number of ReadReq accesses(hits+misses) (Count)
board.cache_hierarchy.clusters.l1dcache.ReadReq.accesses::total      2137032                       # number of ReadReq accesses(hits+misses) (Count)
board.cache_hierarchy.clusters.l1dcache.ReadReq.missRate::processor.cores.core.data     0.007995                       # miss rate for ReadReq accesses (Ratio)
board.cache_hierarchy.clusters.l1dcache.ReadReq.missRate::total     0.007995                       # miss rate for ReadReq accesses (Ratio)
board.cache_hierarchy.clusters.l1dcache.ReadReq.avgMissLatency::processor.cores.core.data  7280.452710                       # average ReadReq miss latency ((Tick/Count))
board.cache_hierarchy.clusters.l1dcache.ReadReq.avgMissLatency::total  7280.452710                       # average ReadReq miss latency ((Tick/Count))
board.cache_hierarchy.clusters.l1dcache.ReadReq.mshrHits::processor.cores.core.data         5148                       # number of ReadReq MSHR hits (Count)
board.cache_hierarchy.clusters.l1dcache.ReadReq.mshrHits::total         5148                       # number of ReadReq MSHR hits (Count)
board.cache_hierarchy.clusters.l1dcache.ReadReq.mshrMisses::processor.cores.core.data        11938                       # number of ReadReq MSHR misses (Count)
board.cache_hierarchy.clusters.l1dcache.ReadReq.mshrMisses::total        11938                       # number of ReadReq MSHR misses (Count)
board.cache_hierarchy.clusters.l1dcache.ReadReq.mshrMissLatency::processor.cores.core.data     86296617                       # number of ReadReq MSHR miss ticks (Tick)
board.cache_hierarchy.clusters.l1dcache.ReadReq.mshrMissLatency::total     86296617                       # number of ReadReq MSHR miss ticks (Tick)
board.cache_hierarchy.clusters.l1dcache.ReadReq.mshrMissRate::processor.cores.core.data     0.005586                       # mshr miss rate for ReadReq accesses (Ratio)
board.cache_hierarchy.clusters.l1dcache.ReadReq.mshrMissRate::total     0.005586                       # mshr miss rate for ReadReq accesses (Ratio)
board.cache_hierarchy.clusters.l1dcache.ReadReq.avgMshrMissLatency::processor.cores.core.data  7228.733205                       # average ReadReq mshr miss latency ((Tick/Count))
board.cache_hierarchy.clusters.l1dcache.ReadReq.avgMshrMissLatency::total  7228.733205                       # average ReadReq mshr miss latency ((Tick/Count))
board.cache_hierarchy.clusters.l1dcache.StoreCondReq.hits::processor.cores.core.data         4175                       # number of StoreCondReq hits (Count)
board.cache_hierarchy.clusters.l1dcache.StoreCondReq.hits::total         4175                       # number of StoreCondReq hits (Count)
board.cache_hierarchy.clusters.l1dcache.StoreCondReq.misses::processor.cores.core.data            7                       # number of StoreCondReq misses (Count)
board.cache_hierarchy.clusters.l1dcache.StoreCondReq.misses::total            7                       # number of StoreCondReq misses (Count)
board.cache_hierarchy.clusters.l1dcache.StoreCondReq.missLatency::processor.cores.core.data        32634                       # number of StoreCondReq miss ticks (Tick)
board.cache_hierarchy.clusters.l1dcache.StoreCondReq.missLatency::total        32634                       # number of StoreCondReq miss ticks (Tick)
board.cache_hierarchy.clusters.l1dcache.StoreCondReq.accesses::processor.cores.core.data         4182                       # number of StoreCondReq accesses(hits+misses) (Count)
board.cache_hierarchy.clusters.l1dcache.StoreCondReq.accesses::total         4182                       # number of StoreCondReq accesses(hits+misses) (Count)
board.cache_hierarchy.clusters.l1dcache.StoreCondReq.missRate::processor.cores.core.data     0.001674                       # miss rate for StoreCondReq accesses (Ratio)
board.cache_hierarchy.clusters.l1dcache.StoreCondReq.missRate::total     0.001674                       # miss rate for StoreCondReq accesses (Ratio)
board.cache_hierarchy.clusters.l1dcache.StoreCondReq.avgMissLatency::processor.cores.core.data         4662                       # average StoreCondReq miss latency ((Tick/Count))
board.cache_hierarchy.clusters.l1dcache.StoreCondReq.avgMissLatency::total         4662                       # average StoreCondReq miss latency ((Tick/Count))
board.cache_hierarchy.clusters.l1dcache.StoreCondReq.mshrMisses::processor.cores.core.data            7                       # number of StoreCondReq MSHR misses (Count)
board.cache_hierarchy.clusters.l1dcache.StoreCondReq.mshrMisses::total            7                       # number of StoreCondReq MSHR misses (Count)
board.cache_hierarchy.clusters.l1dcache.StoreCondReq.mshrMissLatency::processor.cores.core.data        30303                       # number of StoreCondReq MSHR miss ticks (Tick)
board.cache_hierarchy.clusters.l1dcache.StoreCondReq.mshrMissLatency::total        30303                       # number of StoreCondReq MSHR miss ticks (Tick)
board.cache_hierarchy.clusters.l1dcache.StoreCondReq.mshrMissRate::processor.cores.core.data     0.001674                       # mshr miss rate for StoreCondReq accesses (Ratio)
board.cache_hierarchy.clusters.l1dcache.StoreCondReq.mshrMissRate::total     0.001674                       # mshr miss rate for StoreCondReq accesses (Ratio)
board.cache_hierarchy.clusters.l1dcache.StoreCondReq.avgMshrMissLatency::processor.cores.core.data         4329                       # average StoreCondReq mshr miss latency ((Tick/Count))
board.cache_hierarchy.clusters.l1dcache.StoreCondReq.avgMshrMissLatency::total         4329                       # average StoreCondReq mshr miss latency ((Tick/Count))
board.cache_hierarchy.clusters.l1dcache.SwapReq.hits::processor.cores.core.data        66187                       # number of SwapReq hits (Count)
board.cache_hierarchy.clusters.l1dcache.SwapReq.hits::total        66187                       # number of SwapReq hits (Count)
board.cache_hierarchy.clusters.l1dcache.SwapReq.misses::processor.cores.core.data          880                       # number of SwapReq misses (Count)
board.cache_hierarchy.clusters.l1dcache.SwapReq.misses::total          880                       # number of SwapReq misses (Count)
board.cache_hierarchy.clusters.l1dcache.SwapReq.missLatency::processor.cores.core.data      4103892                       # number of SwapReq miss ticks (Tick)
board.cache_hierarchy.clusters.l1dcache.SwapReq.missLatency::total      4103892                       # number of SwapReq miss ticks (Tick)
board.cache_hierarchy.clusters.l1dcache.SwapReq.accesses::processor.cores.core.data        67067                       # number of SwapReq accesses(hits+misses) (Count)
board.cache_hierarchy.clusters.l1dcache.SwapReq.accesses::total        67067                       # number of SwapReq accesses(hits+misses) (Count)
board.cache_hierarchy.clusters.l1dcache.SwapReq.missRate::processor.cores.core.data     0.013121                       # miss rate for SwapReq accesses (Ratio)
board.cache_hierarchy.clusters.l1dcache.SwapReq.missRate::total     0.013121                       # miss rate for SwapReq accesses (Ratio)
board.cache_hierarchy.clusters.l1dcache.SwapReq.avgMissLatency::processor.cores.core.data  4663.513636                       # average SwapReq miss latency ((Tick/Count))
board.cache_hierarchy.clusters.l1dcache.SwapReq.avgMissLatency::total  4663.513636                       # average SwapReq miss latency ((Tick/Count))
board.cache_hierarchy.clusters.l1dcache.SwapReq.mshrMisses::processor.cores.core.data          880                       # number of SwapReq MSHR misses (Count)
board.cache_hierarchy.clusters.l1dcache.SwapReq.mshrMisses::total          880                       # number of SwapReq MSHR misses (Count)
board.cache_hierarchy.clusters.l1dcache.SwapReq.mshrMissLatency::processor.cores.core.data      3810852                       # number of SwapReq MSHR miss ticks (Tick)
board.cache_hierarchy.clusters.l1dcache.SwapReq.mshrMissLatency::total      3810852                       # number of SwapReq MSHR miss ticks (Tick)
board.cache_hierarchy.clusters.l1dcache.SwapReq.mshrMissRate::processor.cores.core.data     0.013121                       # mshr miss rate for SwapReq accesses (Ratio)
board.cache_hierarchy.clusters.l1dcache.SwapReq.mshrMissRate::total     0.013121                       # mshr miss rate for SwapReq accesses (Ratio)
board.cache_hierarchy.clusters.l1dcache.SwapReq.avgMshrMissLatency::processor.cores.core.data  4330.513636                       # average SwapReq mshr miss latency ((Tick/Count))
board.cache_hierarchy.clusters.l1dcache.SwapReq.avgMshrMissLatency::total  4330.513636                       # average SwapReq mshr miss latency ((Tick/Count))
board.cache_hierarchy.clusters.l1dcache.WriteReq.hits::processor.cores.core.data       754205                       # number of WriteReq hits (Count)
board.cache_hierarchy.clusters.l1dcache.WriteReq.hits::total       754205                       # number of WriteReq hits (Count)
board.cache_hierarchy.clusters.l1dcache.WriteReq.misses::processor.cores.core.data        19318                       # number of WriteReq misses (Count)
board.cache_hierarchy.clusters.l1dcache.WriteReq.misses::total        19318                       # number of WriteReq misses (Count)
board.cache_hierarchy.clusters.l1dcache.WriteReq.missLatency::processor.cores.core.data    923633442                       # number of WriteReq miss ticks (Tick)
board.cache_hierarchy.clusters.l1dcache.WriteReq.missLatency::total    923633442                       # number of WriteReq miss ticks (Tick)
board.cache_hierarchy.clusters.l1dcache.WriteReq.accesses::processor.cores.core.data       773523                       # number of WriteReq accesses(hits+misses) (Count)
board.cache_hierarchy.clusters.l1dcache.WriteReq.accesses::total       773523                       # number of WriteReq accesses(hits+misses) (Count)
board.cache_hierarchy.clusters.l1dcache.WriteReq.missRate::processor.cores.core.data     0.024974                       # miss rate for WriteReq accesses (Ratio)
board.cache_hierarchy.clusters.l1dcache.WriteReq.missRate::total     0.024974                       # miss rate for WriteReq accesses (Ratio)
board.cache_hierarchy.clusters.l1dcache.WriteReq.avgMissLatency::processor.cores.core.data 47812.063464                       # average WriteReq miss latency ((Tick/Count))
board.cache_hierarchy.clusters.l1dcache.WriteReq.avgMissLatency::total 47812.063464                       # average WriteReq miss latency ((Tick/Count))
board.cache_hierarchy.clusters.l1dcache.WriteReq.mshrHits::processor.cores.core.data         9106                       # number of WriteReq MSHR hits (Count)
board.cache_hierarchy.clusters.l1dcache.WriteReq.mshrHits::total         9106                       # number of WriteReq MSHR hits (Count)
board.cache_hierarchy.clusters.l1dcache.WriteReq.mshrMisses::processor.cores.core.data        10212                       # number of WriteReq MSHR misses (Count)
board.cache_hierarchy.clusters.l1dcache.WriteReq.mshrMisses::total        10212                       # number of WriteReq MSHR misses (Count)
board.cache_hierarchy.clusters.l1dcache.WriteReq.mshrMissLatency::processor.cores.core.data    295817553                       # number of WriteReq MSHR miss ticks (Tick)
board.cache_hierarchy.clusters.l1dcache.WriteReq.mshrMissLatency::total    295817553                       # number of WriteReq MSHR miss ticks (Tick)
board.cache_hierarchy.clusters.l1dcache.WriteReq.mshrMissRate::processor.cores.core.data     0.013202                       # mshr miss rate for WriteReq accesses (Ratio)
board.cache_hierarchy.clusters.l1dcache.WriteReq.mshrMissRate::total     0.013202                       # mshr miss rate for WriteReq accesses (Ratio)
board.cache_hierarchy.clusters.l1dcache.WriteReq.avgMshrMissLatency::processor.cores.core.data 28967.641304                       # average WriteReq mshr miss latency ((Tick/Count))
board.cache_hierarchy.clusters.l1dcache.WriteReq.avgMshrMissLatency::total 28967.641304                       # average WriteReq mshr miss latency ((Tick/Count))
board.cache_hierarchy.clusters.l1dcache.power_state.pwrStateResidencyTicks::UNDEFINED   5832369792                       # Cumulative time (in ticks) in various power states (Tick)
board.cache_hierarchy.clusters.l1dcache.prefetcher.demandMshrMisses        22150                       # demands not covered by prefetchs (Count)
board.cache_hierarchy.clusters.l1dcache.prefetcher.pfIssued        64054                       # number of hwpf issued (Count)
board.cache_hierarchy.clusters.l1dcache.prefetcher.pfUnused          559                       # number of HardPF blocks evicted w/o reference (Count)
board.cache_hierarchy.clusters.l1dcache.prefetcher.pfUseful        13384                       # number of useful prefetch (Count)
board.cache_hierarchy.clusters.l1dcache.prefetcher.pfUsefulButMiss           38                       # number of hit on prefetch but cache block is not in an usable state (Count)
board.cache_hierarchy.clusters.l1dcache.prefetcher.accuracy     0.208949                       # accuracy of the prefetcher (Count)
board.cache_hierarchy.clusters.l1dcache.prefetcher.coverage     0.376653                       # coverage brought by this prefetcher (Count)
board.cache_hierarchy.clusters.l1dcache.prefetcher.pfHitInCache        38462                       # number of prefetches hitting in cache (Count)
board.cache_hierarchy.clusters.l1dcache.prefetcher.pfHitInMSHR        11058                       # number of prefetches hitting in a MSHR (Count)
board.cache_hierarchy.clusters.l1dcache.prefetcher.pfHitInWB            0                       # number of prefetches hit in the Write Buffer (Count)
board.cache_hierarchy.clusters.l1dcache.prefetcher.pfLate        49520                       # number of late prefetches (hitting in cache, MSHR or WB) (Count)
board.cache_hierarchy.clusters.l1dcache.prefetcher.pfIdentified        65032                       # number of prefetch candidates identified (Count)
board.cache_hierarchy.clusters.l1dcache.prefetcher.pfBufferHit          810                       # number of redundant prefetches already in prefetch queue (Count)
board.cache_hierarchy.clusters.l1dcache.prefetcher.pfInCache            0                       # number of redundant prefetches already in cache/mshr dropped (Count)
board.cache_hierarchy.clusters.l1dcache.prefetcher.pfRemovedDemand           24                       # number of prefetches dropped due to a demand for the same address (Count)
board.cache_hierarchy.clusters.l1dcache.prefetcher.pfRemovedFull            0                       # number of prefetches dropped due to prefetch queue size (Count)
board.cache_hierarchy.clusters.l1dcache.prefetcher.pfSpanPage         4476                       # number of prefetches that crossed the page (Count)
board.cache_hierarchy.clusters.l1dcache.prefetcher.pfUsefulSpanPage         2228                       # number of prefetches that is useful and crossed the page (Count)
board.cache_hierarchy.clusters.l1dcache.prefetcher.power_state.pwrStateResidencyTicks::UNDEFINED   5832369792                       # Cumulative time (in ticks) in various power states (Tick)
board.cache_hierarchy.clusters.l1dcache.tags.tagsInUse   507.906067                       # Average ticks per tags in use ((Tick/Count))
board.cache_hierarchy.clusters.l1dcache.tags.totalRefs      2986473                       # Total number of references to valid blocks. (Count)
board.cache_hierarchy.clusters.l1dcache.tags.sampledRefs        37350                       # Sample count of references to valid blocks. (Count)
board.cache_hierarchy.clusters.l1dcache.tags.avgRefs    79.959116                       # Average number of references to valid blocks. ((Count/Count))
board.cache_hierarchy.clusters.l1dcache.tags.warmupTick       275724                       # The tick when the warmup percentage was hit. (Tick)
board.cache_hierarchy.clusters.l1dcache.tags.occupancies::cache_hierarchy.clusters.l1dcache.prefetcher   317.028125                       # Average occupied blocks per tick, per requestor ((Count/Tick))
board.cache_hierarchy.clusters.l1dcache.tags.occupancies::processor.cores.core.data   190.877942                       # Average occupied blocks per tick, per requestor ((Count/Tick))
board.cache_hierarchy.clusters.l1dcache.tags.avgOccs::cache_hierarchy.clusters.l1dcache.prefetcher     0.619196                       # Average percentage of cache occupancy ((Ratio/Tick))
board.cache_hierarchy.clusters.l1dcache.tags.avgOccs::processor.cores.core.data     0.372808                       # Average percentage of cache occupancy ((Ratio/Tick))
board.cache_hierarchy.clusters.l1dcache.tags.avgOccs::total     0.992004                       # Average percentage of cache occupancy ((Ratio/Tick))
board.cache_hierarchy.clusters.l1dcache.tags.occupanciesTaskId::1022           60                       # Occupied blocks per task id (Count)
board.cache_hierarchy.clusters.l1dcache.tags.occupanciesTaskId::1024          452                       # Occupied blocks per task id (Count)
board.cache_hierarchy.clusters.l1dcache.tags.ageTaskId_1022::0           15                       # Occupied blocks per task id, per block age (Count)
board.cache_hierarchy.clusters.l1dcache.tags.ageTaskId_1022::1           36                       # Occupied blocks per task id, per block age (Count)
board.cache_hierarchy.clusters.l1dcache.tags.ageTaskId_1022::2            9                       # Occupied blocks per task id, per block age (Count)
board.cache_hierarchy.clusters.l1dcache.tags.ageTaskId_1024::0          163                       # Occupied blocks per task id, per block age (Count)
board.cache_hierarchy.clusters.l1dcache.tags.ageTaskId_1024::1          271                       # Occupied blocks per task id, per block age (Count)
board.cache_hierarchy.clusters.l1dcache.tags.ageTaskId_1024::2           17                       # Occupied blocks per task id, per block age (Count)
board.cache_hierarchy.clusters.l1dcache.tags.ageTaskId_1024::3            1                       # Occupied blocks per task id, per block age (Count)
board.cache_hierarchy.clusters.l1dcache.tags.ratioOccsTaskId::1022     0.117188                       # Ratio of occupied blocks and all blocks, per task id (Ratio)
board.cache_hierarchy.clusters.l1dcache.tags.ratioOccsTaskId::1024     0.882812                       # Ratio of occupied blocks and all blocks, per task id (Ratio)
board.cache_hierarchy.clusters.l1dcache.tags.tagAccesses     11981302                       # Number of tag accesses (Count)
board.cache_hierarchy.clusters.l1dcache.tags.dataAccesses     11981302                       # Number of data accesses (Count)
board.cache_hierarchy.clusters.l1dcache.tags.power_state.pwrStateResidencyTicks::UNDEFINED   5832369792                       # Cumulative time (in ticks) in various power states (Tick)
board.cache_hierarchy.clusters.l1icache.demandHits::processor.cores.core.inst      2653351                       # number of demand (read+write) hits (Count)
board.cache_hierarchy.clusters.l1icache.demandHits::total      2653351                       # number of demand (read+write) hits (Count)
board.cache_hierarchy.clusters.l1icache.overallHits::processor.cores.core.inst      2653351                       # number of overall hits (Count)
board.cache_hierarchy.clusters.l1icache.overallHits::total      2653351                       # number of overall hits (Count)
board.cache_hierarchy.clusters.l1icache.demandMisses::processor.cores.core.inst         2960                       # number of demand (read+write) misses (Count)
board.cache_hierarchy.clusters.l1icache.demandMisses::total         2960                       # number of demand (read+write) misses (Count)
board.cache_hierarchy.clusters.l1icache.overallMisses::processor.cores.core.inst         2960                       # number of overall misses (Count)
board.cache_hierarchy.clusters.l1icache.overallMisses::total         2960                       # number of overall misses (Count)
board.cache_hierarchy.clusters.l1icache.demandMissLatency::processor.cores.core.inst    183994821                       # number of demand (read+write) miss ticks (Tick)
board.cache_hierarchy.clusters.l1icache.demandMissLatency::total    183994821                       # number of demand (read+write) miss ticks (Tick)
board.cache_hierarchy.clusters.l1icache.overallMissLatency::processor.cores.core.inst    183994821                       # number of overall miss ticks (Tick)
board.cache_hierarchy.clusters.l1icache.overallMissLatency::total    183994821                       # number of overall miss ticks (Tick)
board.cache_hierarchy.clusters.l1icache.demandAccesses::processor.cores.core.inst      2656311                       # number of demand (read+write) accesses (Count)
board.cache_hierarchy.clusters.l1icache.demandAccesses::total      2656311                       # number of demand (read+write) accesses (Count)
board.cache_hierarchy.clusters.l1icache.overallAccesses::processor.cores.core.inst      2656311                       # number of overall (read+write) accesses (Count)
board.cache_hierarchy.clusters.l1icache.overallAccesses::total      2656311                       # number of overall (read+write) accesses (Count)
board.cache_hierarchy.clusters.l1icache.demandMissRate::processor.cores.core.inst     0.001114                       # miss rate for demand accesses (Ratio)
board.cache_hierarchy.clusters.l1icache.demandMissRate::total     0.001114                       # miss rate for demand accesses (Ratio)
board.cache_hierarchy.clusters.l1icache.overallMissRate::processor.cores.core.inst     0.001114                       # miss rate for overall accesses (Ratio)
board.cache_hierarchy.clusters.l1icache.overallMissRate::total     0.001114                       # miss rate for overall accesses (Ratio)
board.cache_hierarchy.clusters.l1icache.demandAvgMissLatency::processor.cores.core.inst 62160.412500                       # average overall miss latency in ticks ((Tick/Count))
board.cache_hierarchy.clusters.l1icache.demandAvgMissLatency::total 62160.412500                       # average overall miss latency in ticks ((Tick/Count))
board.cache_hierarchy.clusters.l1icache.overallAvgMissLatency::processor.cores.core.inst 62160.412500                       # average overall miss latency ((Tick/Count))
board.cache_hierarchy.clusters.l1icache.overallAvgMissLatency::total 62160.412500                       # average overall miss latency ((Tick/Count))
board.cache_hierarchy.clusters.l1icache.blockedCycles::no_mshrs            0                       # number of cycles access was blocked (Cycle)
board.cache_hierarchy.clusters.l1icache.blockedCycles::no_targets            0                       # number of cycles access was blocked (Cycle)
board.cache_hierarchy.clusters.l1icache.blockedCauses::no_mshrs            0                       # number of times access was blocked (Count)
board.cache_hierarchy.clusters.l1icache.blockedCauses::no_targets            0                       # number of times access was blocked (Count)
board.cache_hierarchy.clusters.l1icache.avgBlocked::no_mshrs          nan                       # average number of cycles each access was blocked ((Cycle/Count))
board.cache_hierarchy.clusters.l1icache.avgBlocked::no_targets          nan                       # average number of cycles each access was blocked ((Cycle/Count))
board.cache_hierarchy.clusters.l1icache.writebacks::writebacks         2036                       # number of writebacks (Count)
board.cache_hierarchy.clusters.l1icache.writebacks::total         2036                       # number of writebacks (Count)
board.cache_hierarchy.clusters.l1icache.demandMshrHits::processor.cores.core.inst          412                       # number of demand (read+write) MSHR hits (Count)
board.cache_hierarchy.clusters.l1icache.demandMshrHits::total          412                       # number of demand (read+write) MSHR hits (Count)
board.cache_hierarchy.clusters.l1icache.overallMshrHits::processor.cores.core.inst          412                       # number of overall MSHR hits (Count)
board.cache_hierarchy.clusters.l1icache.overallMshrHits::total          412                       # number of overall MSHR hits (Count)
board.cache_hierarchy.clusters.l1icache.demandMshrMisses::processor.cores.core.inst         2548                       # number of demand (read+write) MSHR misses (Count)
board.cache_hierarchy.clusters.l1icache.demandMshrMisses::total         2548                       # number of demand (read+write) MSHR misses (Count)
board.cache_hierarchy.clusters.l1icache.overallMshrMisses::processor.cores.core.inst         2548                       # number of overall MSHR misses (Count)
board.cache_hierarchy.clusters.l1icache.overallMshrMisses::total         2548                       # number of overall MSHR misses (Count)
board.cache_hierarchy.clusters.l1icache.demandMshrMissLatency::processor.cores.core.inst    153400779                       # number of demand (read+write) MSHR miss ticks (Tick)
board.cache_hierarchy.clusters.l1icache.demandMshrMissLatency::total    153400779                       # number of demand (read+write) MSHR miss ticks (Tick)
board.cache_hierarchy.clusters.l1icache.overallMshrMissLatency::processor.cores.core.inst    153400779                       # number of overall MSHR miss ticks (Tick)
board.cache_hierarchy.clusters.l1icache.overallMshrMissLatency::total    153400779                       # number of overall MSHR miss ticks (Tick)
board.cache_hierarchy.clusters.l1icache.demandMshrMissRate::processor.cores.core.inst     0.000959                       # mshr miss ratio for demand accesses (Ratio)
board.cache_hierarchy.clusters.l1icache.demandMshrMissRate::total     0.000959                       # mshr miss ratio for demand accesses (Ratio)
board.cache_hierarchy.clusters.l1icache.overallMshrMissRate::processor.cores.core.inst     0.000959                       # mshr miss ratio for overall accesses (Ratio)
board.cache_hierarchy.clusters.l1icache.overallMshrMissRate::total     0.000959                       # mshr miss ratio for overall accesses (Ratio)
board.cache_hierarchy.clusters.l1icache.demandAvgMshrMissLatency::processor.cores.core.inst 60204.387363                       # average overall mshr miss latency ((Tick/Count))
board.cache_hierarchy.clusters.l1icache.demandAvgMshrMissLatency::total 60204.387363                       # average overall mshr miss latency ((Tick/Count))
board.cache_hierarchy.clusters.l1icache.overallAvgMshrMissLatency::processor.cores.core.inst 60204.387363                       # average overall mshr miss latency ((Tick/Count))
board.cache_hierarchy.clusters.l1icache.overallAvgMshrMissLatency::total 60204.387363                       # average overall mshr miss latency ((Tick/Count))
board.cache_hierarchy.clusters.l1icache.replacements         2036                       # number of replacements (Count)
board.cache_hierarchy.clusters.l1icache.ReadReq.hits::processor.cores.core.inst      2653351                       # number of ReadReq hits (Count)
board.cache_hierarchy.clusters.l1icache.ReadReq.hits::total      2653351                       # number of ReadReq hits (Count)
board.cache_hierarchy.clusters.l1icache.ReadReq.misses::processor.cores.core.inst         2960                       # number of ReadReq misses (Count)
board.cache_hierarchy.clusters.l1icache.ReadReq.misses::total         2960                       # number of ReadReq misses (Count)
board.cache_hierarchy.clusters.l1icache.ReadReq.missLatency::processor.cores.core.inst    183994821                       # number of ReadReq miss ticks (Tick)
board.cache_hierarchy.clusters.l1icache.ReadReq.missLatency::total    183994821                       # number of ReadReq miss ticks (Tick)
board.cache_hierarchy.clusters.l1icache.ReadReq.accesses::processor.cores.core.inst      2656311                       # number of ReadReq accesses(hits+misses) (Count)
board.cache_hierarchy.clusters.l1icache.ReadReq.accesses::total      2656311                       # number of ReadReq accesses(hits+misses) (Count)
board.cache_hierarchy.clusters.l1icache.ReadReq.missRate::processor.cores.core.inst     0.001114                       # miss rate for ReadReq accesses (Ratio)
board.cache_hierarchy.clusters.l1icache.ReadReq.missRate::total     0.001114                       # miss rate for ReadReq accesses (Ratio)
board.cache_hierarchy.clusters.l1icache.ReadReq.avgMissLatency::processor.cores.core.inst 62160.412500                       # average ReadReq miss latency ((Tick/Count))
board.cache_hierarchy.clusters.l1icache.ReadReq.avgMissLatency::total 62160.412500                       # average ReadReq miss latency ((Tick/Count))
board.cache_hierarchy.clusters.l1icache.ReadReq.mshrHits::processor.cores.core.inst          412                       # number of ReadReq MSHR hits (Count)
board.cache_hierarchy.clusters.l1icache.ReadReq.mshrHits::total          412                       # number of ReadReq MSHR hits (Count)
board.cache_hierarchy.clusters.l1icache.ReadReq.mshrMisses::processor.cores.core.inst         2548                       # number of ReadReq MSHR misses (Count)
board.cache_hierarchy.clusters.l1icache.ReadReq.mshrMisses::total         2548                       # number of ReadReq MSHR misses (Count)
board.cache_hierarchy.clusters.l1icache.ReadReq.mshrMissLatency::processor.cores.core.inst    153400779                       # number of ReadReq MSHR miss ticks (Tick)
board.cache_hierarchy.clusters.l1icache.ReadReq.mshrMissLatency::total    153400779                       # number of ReadReq MSHR miss ticks (Tick)
board.cache_hierarchy.clusters.l1icache.ReadReq.mshrMissRate::processor.cores.core.inst     0.000959                       # mshr miss rate for ReadReq accesses (Ratio)
board.cache_hierarchy.clusters.l1icache.ReadReq.mshrMissRate::total     0.000959                       # mshr miss rate for ReadReq accesses (Ratio)
board.cache_hierarchy.clusters.l1icache.ReadReq.avgMshrMissLatency::processor.cores.core.inst 60204.387363                       # average ReadReq mshr miss latency ((Tick/Count))
board.cache_hierarchy.clusters.l1icache.ReadReq.avgMshrMissLatency::total 60204.387363                       # average ReadReq mshr miss latency ((Tick/Count))
board.cache_hierarchy.clusters.l1icache.power_state.pwrStateResidencyTicks::UNDEFINED   5832369792                       # Cumulative time (in ticks) in various power states (Tick)
board.cache_hierarchy.clusters.l1icache.prefetcher.demandMshrMisses         2548                       # demands not covered by prefetchs (Count)
board.cache_hierarchy.clusters.l1icache.prefetcher.pfIssued            0                       # number of hwpf issued (Count)
board.cache_hierarchy.clusters.l1icache.prefetcher.pfUseful            0                       # number of useful prefetch (Count)
board.cache_hierarchy.clusters.l1icache.prefetcher.pfUsefulButMiss            0                       # number of hit on prefetch but cache block is not in an usable state (Count)
board.cache_hierarchy.clusters.l1icache.prefetcher.accuracy          nan                       # accuracy of the prefetcher (Count)
board.cache_hierarchy.clusters.l1icache.prefetcher.coverage            0                       # coverage brought by this prefetcher (Count)
board.cache_hierarchy.clusters.l1icache.prefetcher.pfHitInCache            0                       # number of prefetches hitting in cache (Count)
board.cache_hierarchy.clusters.l1icache.prefetcher.pfHitInMSHR            0                       # number of prefetches hitting in a MSHR (Count)
board.cache_hierarchy.clusters.l1icache.prefetcher.pfHitInWB            0                       # number of prefetches hit in the Write Buffer (Count)
board.cache_hierarchy.clusters.l1icache.prefetcher.pfLate            0                       # number of late prefetches (hitting in cache, MSHR or WB) (Count)
board.cache_hierarchy.clusters.l1icache.prefetcher.pfIdentified            0                       # number of prefetch candidates identified (Count)
board.cache_hierarchy.clusters.l1icache.prefetcher.pfBufferHit            0                       # number of redundant prefetches already in prefetch queue (Count)
board.cache_hierarchy.clusters.l1icache.prefetcher.pfInCache            0                       # number of redundant prefetches already in cache/mshr dropped (Count)
board.cache_hierarchy.clusters.l1icache.prefetcher.pfRemovedDemand            0                       # number of prefetches dropped due to a demand for the same address (Count)
board.cache_hierarchy.clusters.l1icache.prefetcher.pfRemovedFull            0                       # number of prefetches dropped due to prefetch queue size (Count)
board.cache_hierarchy.clusters.l1icache.prefetcher.pfSpanPage            0                       # number of prefetches that crossed the page (Count)
board.cache_hierarchy.clusters.l1icache.prefetcher.pfUsefulSpanPage            0                       # number of prefetches that is useful and crossed the page (Count)
board.cache_hierarchy.clusters.l1icache.prefetcher.power_state.pwrStateResidencyTicks::UNDEFINED   5832369792                       # Cumulative time (in ticks) in various power states (Tick)
board.cache_hierarchy.clusters.l1icache.tags.tagsInUse   502.474211                       # Average ticks per tags in use ((Tick/Count))
board.cache_hierarchy.clusters.l1icache.tags.totalRefs      2655899                       # Total number of references to valid blocks. (Count)
board.cache_hierarchy.clusters.l1icache.tags.sampledRefs         2548                       # Sample count of references to valid blocks. (Count)
board.cache_hierarchy.clusters.l1icache.tags.avgRefs  1042.346546                       # Average number of references to valid blocks. ((Count/Count))
board.cache_hierarchy.clusters.l1icache.tags.warmupTick        90576                       # The tick when the warmup percentage was hit. (Tick)
board.cache_hierarchy.clusters.l1icache.tags.occupancies::processor.cores.core.inst   502.474211                       # Average occupied blocks per tick, per requestor ((Count/Tick))
board.cache_hierarchy.clusters.l1icache.tags.avgOccs::processor.cores.core.inst     0.981395                       # Average percentage of cache occupancy ((Ratio/Tick))
board.cache_hierarchy.clusters.l1icache.tags.avgOccs::total     0.981395                       # Average percentage of cache occupancy ((Ratio/Tick))
board.cache_hierarchy.clusters.l1icache.tags.occupanciesTaskId::1024          512                       # Occupied blocks per task id (Count)
board.cache_hierarchy.clusters.l1icache.tags.ageTaskId_1024::0          109                       # Occupied blocks per task id, per block age (Count)
board.cache_hierarchy.clusters.l1icache.tags.ageTaskId_1024::1           15                       # Occupied blocks per task id, per block age (Count)
board.cache_hierarchy.clusters.l1icache.tags.ageTaskId_1024::2          159                       # Occupied blocks per task id, per block age (Count)
board.cache_hierarchy.clusters.l1icache.tags.ageTaskId_1024::3          229                       # Occupied blocks per task id, per block age (Count)
board.cache_hierarchy.clusters.l1icache.tags.ratioOccsTaskId::1024            1                       # Ratio of occupied blocks and all blocks, per task id (Ratio)
board.cache_hierarchy.clusters.l1icache.tags.tagAccesses     10627792                       # Number of tag accesses (Count)
board.cache_hierarchy.clusters.l1icache.tags.dataAccesses     10627792                       # Number of data accesses (Count)
board.cache_hierarchy.clusters.l1icache.tags.power_state.pwrStateResidencyTicks::UNDEFINED   5832369792                       # Cumulative time (in ticks) in various power states (Tick)
board.cache_hierarchy.clusters.l2_xbar.transDist::ReadResp        29024                       # Transaction distribution (Count)
board.cache_hierarchy.clusters.l2_xbar.transDist::WritebackDirty        40089                       # Transaction distribution (Count)
board.cache_hierarchy.clusters.l2_xbar.transDist::WritebackClean         2036                       # Transaction distribution (Count)
board.cache_hierarchy.clusters.l2_xbar.transDist::CleanEvict         3215                       # Transaction distribution (Count)
board.cache_hierarchy.clusters.l2_xbar.transDist::HardPFReq         4088                       # Transaction distribution (Count)
board.cache_hierarchy.clusters.l2_xbar.transDist::UpgradeReq          219                       # Transaction distribution (Count)
board.cache_hierarchy.clusters.l2_xbar.transDist::SCUpgradeReq            7                       # Transaction distribution (Count)
board.cache_hierarchy.clusters.l2_xbar.transDist::UpgradeResp          226                       # Transaction distribution (Count)
board.cache_hierarchy.clusters.l2_xbar.transDist::ReadExReq        10874                       # Transaction distribution (Count)
board.cache_hierarchy.clusters.l2_xbar.transDist::ReadExResp        10874                       # Transaction distribution (Count)
board.cache_hierarchy.clusters.l2_xbar.transDist::ReadSharedReq        29024                       # Transaction distribution (Count)
board.cache_hierarchy.clusters.l2_xbar.pktCount_board.cache_hierarchy.clusters.l1dcache.mem_side_port::board.cache_hierarchy.clusters.l2cache.cpu_side_port       111990                       # Packet count per connected requestor and responder (Count)
board.cache_hierarchy.clusters.l2_xbar.pktCount_board.cache_hierarchy.clusters.l1icache.mem_side_port::board.cache_hierarchy.clusters.l2cache.cpu_side_port         7132                       # Packet count per connected requestor and responder (Count)
board.cache_hierarchy.clusters.l2_xbar.pktCount::total       119122                       # Packet count per connected requestor and responder (Count)
board.cache_hierarchy.clusters.l2_xbar.pktSize_board.cache_hierarchy.clusters.l1dcache.mem_side_port::board.cache_hierarchy.clusters.l2cache.cpu_side_port      4666944                       # Cumulative packet size per connected requestor and responder (Byte)
board.cache_hierarchy.clusters.l2_xbar.pktSize_board.cache_hierarchy.clusters.l1icache.mem_side_port::board.cache_hierarchy.clusters.l2cache.cpu_side_port       293376                       # Cumulative packet size per connected requestor and responder (Byte)
board.cache_hierarchy.clusters.l2_xbar.pktSize::total      4960320                       # Cumulative packet size per connected requestor and responder (Byte)
board.cache_hierarchy.clusters.l2_xbar.snoops        10554                       # Total snoops (Count)
board.cache_hierarchy.clusters.l2_xbar.snoopTraffic       289152                       # Total snoop traffic (Byte)
board.cache_hierarchy.clusters.l2_xbar.snoopFanout::samples        50678                       # Request fanout histogram (Count)
board.cache_hierarchy.clusters.l2_xbar.snoopFanout::mean     0.014563                       # Request fanout histogram (Count)
board.cache_hierarchy.clusters.l2_xbar.snoopFanout::stdev     0.119795                       # Request fanout histogram (Count)
board.cache_hierarchy.clusters.l2_xbar.snoopFanout::underflows            0      0.00%      0.00% # Request fanout histogram (Count)
board.cache_hierarchy.clusters.l2_xbar.snoopFanout::0        49940     98.54%     98.54% # Request fanout histogram (Count)
board.cache_hierarchy.clusters.l2_xbar.snoopFanout::1          738      1.46%    100.00% # Request fanout histogram (Count)
board.cache_hierarchy.clusters.l2_xbar.snoopFanout::2            0      0.00%    100.00% # Request fanout histogram (Count)
board.cache_hierarchy.clusters.l2_xbar.snoopFanout::3            0      0.00%    100.00% # Request fanout histogram (Count)
board.cache_hierarchy.clusters.l2_xbar.snoopFanout::4            0      0.00%    100.00% # Request fanout histogram (Count)
board.cache_hierarchy.clusters.l2_xbar.snoopFanout::overflows            0      0.00%    100.00% # Request fanout histogram (Count)
board.cache_hierarchy.clusters.l2_xbar.snoopFanout::min_value            0                       # Request fanout histogram (Count)
board.cache_hierarchy.clusters.l2_xbar.snoopFanout::max_value            1                       # Request fanout histogram (Count)
board.cache_hierarchy.clusters.l2_xbar.snoopFanout::total        50678                       # Request fanout histogram (Count)
board.cache_hierarchy.clusters.l2_xbar.power_state.pwrStateResidencyTicks::UNDEFINED   5832369792                       # Cumulative time (in ticks) in various power states (Tick)
board.cache_hierarchy.clusters.l2_xbar.reqLayer0.occupancy     55114653                       # Layer occupancy (ticks) (Tick)
board.cache_hierarchy.clusters.l2_xbar.reqLayer0.utilization          0.0                       # Layer utilization (Ratio)
board.cache_hierarchy.clusters.l2_xbar.respLayer0.occupancy     37388240                       # Layer occupancy (ticks) (Tick)
board.cache_hierarchy.clusters.l2_xbar.respLayer0.utilization          0.0                       # Layer utilization (Ratio)
board.cache_hierarchy.clusters.l2_xbar.respLayer1.occupancy      2545784                       # Layer occupancy (ticks) (Tick)
board.cache_hierarchy.clusters.l2_xbar.respLayer1.utilization          0.0                       # Layer utilization (Ratio)
board.cache_hierarchy.clusters.l2_xbar.snoop_filter.totRequests        78998                       # Total number of requests made to the snoop filter. (Count)
board.cache_hierarchy.clusters.l2_xbar.snoop_filter.hitSingleRequests        39100                       # Number of requests hitting in the snoop filter with a single holder of the requested data. (Count)
board.cache_hierarchy.clusters.l2_xbar.snoop_filter.hitMultiRequests            0                       # Number of requests hitting in the snoop filter with multiple (>1) holders of the requested data. (Count)
board.cache_hierarchy.clusters.l2_xbar.snoop_filter.totSnoops          738                       # Total number of snoops made to the snoop filter. (Count)
board.cache_hierarchy.clusters.l2_xbar.snoop_filter.hitSingleSnoops          738                       # Number of snoops hitting in the snoop filter with a single holder of the requested data. (Count)
board.cache_hierarchy.clusters.l2_xbar.snoop_filter.hitMultiSnoops            0                       # Number of snoops hitting in the snoop filter with multiple (>1) holders of the requested data. (Count)
board.cache_hierarchy.clusters.l2cache.demandHits::cache_hierarchy.clusters.l1dcache.prefetcher        12348                       # number of demand (read+write) hits (Count)
board.cache_hierarchy.clusters.l2cache.demandHits::processor.cores.core.inst          943                       # number of demand (read+write) hits (Count)
board.cache_hierarchy.clusters.l2cache.demandHits::processor.cores.core.data        19361                       # number of demand (read+write) hits (Count)
board.cache_hierarchy.clusters.l2cache.demandHits::total        32652                       # number of demand (read+write) hits (Count)
board.cache_hierarchy.clusters.l2cache.overallHits::cache_hierarchy.clusters.l1dcache.prefetcher        12348                       # number of overall hits (Count)
board.cache_hierarchy.clusters.l2cache.overallHits::processor.cores.core.inst          943                       # number of overall hits (Count)
board.cache_hierarchy.clusters.l2cache.overallHits::processor.cores.core.data        19361                       # number of overall hits (Count)
board.cache_hierarchy.clusters.l2cache.overallHits::total        32652                       # number of overall hits (Count)
board.cache_hierarchy.clusters.l2cache.demandMisses::cache_hierarchy.clusters.l1dcache.prefetcher         2186                       # number of demand (read+write) misses (Count)
board.cache_hierarchy.clusters.l2cache.demandMisses::processor.cores.core.inst         1605                       # number of demand (read+write) misses (Count)
board.cache_hierarchy.clusters.l2cache.demandMisses::processor.cores.core.data         3455                       # number of demand (read+write) misses (Count)
board.cache_hierarchy.clusters.l2cache.demandMisses::total         7246                       # number of demand (read+write) misses (Count)
board.cache_hierarchy.clusters.l2cache.overallMisses::cache_hierarchy.clusters.l1dcache.prefetcher         2186                       # number of overall misses (Count)
board.cache_hierarchy.clusters.l2cache.overallMisses::processor.cores.core.inst         1605                       # number of overall misses (Count)
board.cache_hierarchy.clusters.l2cache.overallMisses::processor.cores.core.data         3455                       # number of overall misses (Count)
board.cache_hierarchy.clusters.l2cache.overallMisses::total         7246                       # number of overall misses (Count)
board.cache_hierarchy.clusters.l2cache.demandMissLatency::cache_hierarchy.clusters.l1dcache.prefetcher    273419635                       # number of demand (read+write) miss ticks (Tick)
board.cache_hierarchy.clusters.l2cache.demandMissLatency::processor.cores.core.inst    148163022                       # number of demand (read+write) miss ticks (Tick)
board.cache_hierarchy.clusters.l2cache.demandMissLatency::processor.cores.core.data    298068633                       # number of demand (read+write) miss ticks (Tick)
board.cache_hierarchy.clusters.l2cache.demandMissLatency::total    719651290                       # number of demand (read+write) miss ticks (Tick)
board.cache_hierarchy.clusters.l2cache.overallMissLatency::cache_hierarchy.clusters.l1dcache.prefetcher    273419635                       # number of overall miss ticks (Tick)
board.cache_hierarchy.clusters.l2cache.overallMissLatency::processor.cores.core.inst    148163022                       # number of overall miss ticks (Tick)
board.cache_hierarchy.clusters.l2cache.overallMissLatency::processor.cores.core.data    298068633                       # number of overall miss ticks (Tick)
board.cache_hierarchy.clusters.l2cache.overallMissLatency::total    719651290                       # number of overall miss ticks (Tick)
board.cache_hierarchy.clusters.l2cache.demandAccesses::cache_hierarchy.clusters.l1dcache.prefetcher        14534                       # number of demand (read+write) accesses (Count)
board.cache_hierarchy.clusters.l2cache.demandAccesses::processor.cores.core.inst         2548                       # number of demand (read+write) accesses (Count)
board.cache_hierarchy.clusters.l2cache.demandAccesses::processor.cores.core.data        22816                       # number of demand (read+write) accesses (Count)
board.cache_hierarchy.clusters.l2cache.demandAccesses::total        39898                       # number of demand (read+write) accesses (Count)
board.cache_hierarchy.clusters.l2cache.overallAccesses::cache_hierarchy.clusters.l1dcache.prefetcher        14534                       # number of overall (read+write) accesses (Count)
board.cache_hierarchy.clusters.l2cache.overallAccesses::processor.cores.core.inst         2548                       # number of overall (read+write) accesses (Count)
board.cache_hierarchy.clusters.l2cache.overallAccesses::processor.cores.core.data        22816                       # number of overall (read+write) accesses (Count)
board.cache_hierarchy.clusters.l2cache.overallAccesses::total        39898                       # number of overall (read+write) accesses (Count)
board.cache_hierarchy.clusters.l2cache.demandMissRate::cache_hierarchy.clusters.l1dcache.prefetcher     0.150406                       # miss rate for demand accesses (Ratio)
board.cache_hierarchy.clusters.l2cache.demandMissRate::processor.cores.core.inst     0.629906                       # miss rate for demand accesses (Ratio)
board.cache_hierarchy.clusters.l2cache.demandMissRate::processor.cores.core.data     0.151429                       # miss rate for demand accesses (Ratio)
board.cache_hierarchy.clusters.l2cache.demandMissRate::total     0.181613                       # miss rate for demand accesses (Ratio)
board.cache_hierarchy.clusters.l2cache.overallMissRate::cache_hierarchy.clusters.l1dcache.prefetcher     0.150406                       # miss rate for overall accesses (Ratio)
board.cache_hierarchy.clusters.l2cache.overallMissRate::processor.cores.core.inst     0.629906                       # miss rate for overall accesses (Ratio)
board.cache_hierarchy.clusters.l2cache.overallMissRate::processor.cores.core.data     0.151429                       # miss rate for overall accesses (Ratio)
board.cache_hierarchy.clusters.l2cache.overallMissRate::total     0.181613                       # miss rate for overall accesses (Ratio)
board.cache_hierarchy.clusters.l2cache.demandAvgMissLatency::cache_hierarchy.clusters.l1dcache.prefetcher 125077.600640                       # average overall miss latency in ticks ((Tick/Count))
board.cache_hierarchy.clusters.l2cache.demandAvgMissLatency::processor.cores.core.inst 92313.409346                       # average overall miss latency in ticks ((Tick/Count))
board.cache_hierarchy.clusters.l2cache.demandAvgMissLatency::processor.cores.core.data 86271.673806                       # average overall miss latency in ticks ((Tick/Count))
board.cache_hierarchy.clusters.l2cache.demandAvgMissLatency::total 99317.042506                       # average overall miss latency in ticks ((Tick/Count))
board.cache_hierarchy.clusters.l2cache.overallAvgMissLatency::cache_hierarchy.clusters.l1dcache.prefetcher 125077.600640                       # average overall miss latency ((Tick/Count))
board.cache_hierarchy.clusters.l2cache.overallAvgMissLatency::processor.cores.core.inst 92313.409346                       # average overall miss latency ((Tick/Count))
board.cache_hierarchy.clusters.l2cache.overallAvgMissLatency::processor.cores.core.data 86271.673806                       # average overall miss latency ((Tick/Count))
board.cache_hierarchy.clusters.l2cache.overallAvgMissLatency::total 99317.042506                       # average overall miss latency ((Tick/Count))
board.cache_hierarchy.clusters.l2cache.blockedCycles::no_mshrs            0                       # number of cycles access was blocked (Cycle)
board.cache_hierarchy.clusters.l2cache.blockedCycles::no_targets            0                       # number of cycles access was blocked (Cycle)
board.cache_hierarchy.clusters.l2cache.blockedCauses::no_mshrs            0                       # number of times access was blocked (Count)
board.cache_hierarchy.clusters.l2cache.blockedCauses::no_targets            0                       # number of times access was blocked (Count)
board.cache_hierarchy.clusters.l2cache.avgBlocked::no_mshrs          nan                       # average number of cycles each access was blocked ((Cycle/Count))
board.cache_hierarchy.clusters.l2cache.avgBlocked::no_targets          nan                       # average number of cycles each access was blocked ((Cycle/Count))
board.cache_hierarchy.clusters.l2cache.writebacks::writebacks         4518                       # number of writebacks (Count)
board.cache_hierarchy.clusters.l2cache.writebacks::total         4518                       # number of writebacks (Count)
board.cache_hierarchy.clusters.l2cache.demandMshrHits::cache_hierarchy.clusters.l1dcache.prefetcher          579                       # number of demand (read+write) MSHR hits (Count)
board.cache_hierarchy.clusters.l2cache.demandMshrHits::processor.cores.core.data            3                       # number of demand (read+write) MSHR hits (Count)
board.cache_hierarchy.clusters.l2cache.demandMshrHits::total          582                       # number of demand (read+write) MSHR hits (Count)
board.cache_hierarchy.clusters.l2cache.overallMshrHits::cache_hierarchy.clusters.l1dcache.prefetcher          579                       # number of overall MSHR hits (Count)
board.cache_hierarchy.clusters.l2cache.overallMshrHits::processor.cores.core.data            3                       # number of overall MSHR hits (Count)
board.cache_hierarchy.clusters.l2cache.overallMshrHits::total          582                       # number of overall MSHR hits (Count)
board.cache_hierarchy.clusters.l2cache.demandMshrMisses::cache_hierarchy.clusters.l1dcache.prefetcher         1607                       # number of demand (read+write) MSHR misses (Count)
board.cache_hierarchy.clusters.l2cache.demandMshrMisses::processor.cores.core.inst         1605                       # number of demand (read+write) MSHR misses (Count)
board.cache_hierarchy.clusters.l2cache.demandMshrMisses::processor.cores.core.data         3452                       # number of demand (read+write) MSHR misses (Count)
board.cache_hierarchy.clusters.l2cache.demandMshrMisses::total         6664                       # number of demand (read+write) MSHR misses (Count)
board.cache_hierarchy.clusters.l2cache.overallMshrMisses::cache_hierarchy.clusters.l1dcache.prefetcher         1607                       # number of overall MSHR misses (Count)
board.cache_hierarchy.clusters.l2cache.overallMshrMisses::cache_hierarchy.clusters.l2cache.prefetcher         3400                       # number of overall MSHR misses (Count)
board.cache_hierarchy.clusters.l2cache.overallMshrMisses::processor.cores.core.inst         1605                       # number of overall MSHR misses (Count)
board.cache_hierarchy.clusters.l2cache.overallMshrMisses::processor.cores.core.data         3452                       # number of overall MSHR misses (Count)
board.cache_hierarchy.clusters.l2cache.overallMshrMisses::total        10064                       # number of overall MSHR misses (Count)
board.cache_hierarchy.clusters.l2cache.demandMshrMissLatency::cache_hierarchy.clusters.l1dcache.prefetcher    221706783                       # number of demand (read+write) MSHR miss ticks (Tick)
board.cache_hierarchy.clusters.l2cache.demandMshrMissLatency::processor.cores.core.inst    147628557                       # number of demand (read+write) MSHR miss ticks (Tick)
board.cache_hierarchy.clusters.l2cache.demandMshrMissLatency::processor.cores.core.data    296620749                       # number of demand (read+write) MSHR miss ticks (Tick)
board.cache_hierarchy.clusters.l2cache.demandMshrMissLatency::total    665956089                       # number of demand (read+write) MSHR miss ticks (Tick)
board.cache_hierarchy.clusters.l2cache.overallMshrMissLatency::cache_hierarchy.clusters.l1dcache.prefetcher    221706783                       # number of overall MSHR miss ticks (Tick)
board.cache_hierarchy.clusters.l2cache.overallMshrMissLatency::cache_hierarchy.clusters.l2cache.prefetcher    309290108                       # number of overall MSHR miss ticks (Tick)
board.cache_hierarchy.clusters.l2cache.overallMshrMissLatency::processor.cores.core.inst    147628557                       # number of overall MSHR miss ticks (Tick)
board.cache_hierarchy.clusters.l2cache.overallMshrMissLatency::processor.cores.core.data    296620749                       # number of overall MSHR miss ticks (Tick)
board.cache_hierarchy.clusters.l2cache.overallMshrMissLatency::total    975246197                       # number of overall MSHR miss ticks (Tick)
board.cache_hierarchy.clusters.l2cache.demandMshrMissRate::cache_hierarchy.clusters.l1dcache.prefetcher     0.110568                       # mshr miss ratio for demand accesses (Ratio)
board.cache_hierarchy.clusters.l2cache.demandMshrMissRate::processor.cores.core.inst     0.629906                       # mshr miss ratio for demand accesses (Ratio)
board.cache_hierarchy.clusters.l2cache.demandMshrMissRate::processor.cores.core.data     0.151297                       # mshr miss ratio for demand accesses (Ratio)
board.cache_hierarchy.clusters.l2cache.demandMshrMissRate::total     0.167026                       # mshr miss ratio for demand accesses (Ratio)
board.cache_hierarchy.clusters.l2cache.overallMshrMissRate::cache_hierarchy.clusters.l1dcache.prefetcher     0.110568                       # mshr miss ratio for overall accesses (Ratio)
board.cache_hierarchy.clusters.l2cache.overallMshrMissRate::cache_hierarchy.clusters.l2cache.prefetcher          inf                       # mshr miss ratio for overall accesses (Ratio)
board.cache_hierarchy.clusters.l2cache.overallMshrMissRate::processor.cores.core.inst     0.629906                       # mshr miss ratio for overall accesses (Ratio)
board.cache_hierarchy.clusters.l2cache.overallMshrMissRate::processor.cores.core.data     0.151297                       # mshr miss ratio for overall accesses (Ratio)
board.cache_hierarchy.clusters.l2cache.overallMshrMissRate::total     0.252243                       # mshr miss ratio for overall accesses (Ratio)
board.cache_hierarchy.clusters.l2cache.demandAvgMshrMissLatency::cache_hierarchy.clusters.l1dcache.prefetcher 137963.150591                       # average overall mshr miss latency ((Tick/Count))
board.cache_hierarchy.clusters.l2cache.demandAvgMshrMissLatency::processor.cores.core.inst 91980.409346                       # average overall mshr miss latency ((Tick/Count))
board.cache_hierarchy.clusters.l2cache.demandAvgMshrMissLatency::processor.cores.core.data 85927.215817                       # average overall mshr miss latency ((Tick/Count))
board.cache_hierarchy.clusters.l2cache.demandAvgMshrMissLatency::total 99933.386705                       # average overall mshr miss latency ((Tick/Count))
board.cache_hierarchy.clusters.l2cache.overallAvgMshrMissLatency::cache_hierarchy.clusters.l1dcache.prefetcher 137963.150591                       # average overall mshr miss latency ((Tick/Count))
board.cache_hierarchy.clusters.l2cache.overallAvgMshrMissLatency::cache_hierarchy.clusters.l2cache.prefetcher 90967.678824                       # average overall mshr miss latency ((Tick/Count))
board.cache_hierarchy.clusters.l2cache.overallAvgMshrMissLatency::processor.cores.core.inst 91980.409346                       # average overall mshr miss latency ((Tick/Count))
board.cache_hierarchy.clusters.l2cache.overallAvgMshrMissLatency::processor.cores.core.data 85927.215817                       # average overall mshr miss latency ((Tick/Count))
[...]
board.processor.cores.core.executeStats0.numMemRefs      3103557                       # Number of memory refs (Count)
board.processor.cores.core.executeStats0.numMiscRegReads          699                       # Number of times the Misc registers were read (Count)
board.processor.cores.core.executeStats0.numMiscRegWrites          496                       # Number of times the Misc registers were written (Count)
board.processor.cores.core.executeStats0.numVecAluAccesses            0                       # Number of vector alu accesses (Count)
board.processor.cores.core.executeStats0.numDiscardedOps            0                       # Number of ops (including micro ops) which were discarded before commit (Count)
board.processor.cores.core.fetch.predictedBranches      2702960                       # Number of branches that fetch has predicted taken (Count)
board.processor.cores.core.fetch.cycles      16610655                       # Number of cycles fetch has run and was not squashing or blocked (Cycle)
board.processor.cores.core.fetch.squashCycles       886332                       # Number of cycles fetch has spent squashing (Cycle)
board.processor.cores.core.fetch.cacheLines      2656311                       # Number of cache lines fetched (Count)
board.processor.cores.core.fetch.icacheSquashes         1018                       # Number of outstanding Icache misses that were squashed (Count)
board.processor.cores.core.fetch.nisnDist::samples     17222292                       # Number of instructions fetched each cycle (Total) (Count)
board.processor.cores.core.fetch.nisnDist::mean     1.294658                       # Number of instructions fetched each cycle (Total) (Count)
board.processor.cores.core.fetch.nisnDist::stdev     0.891146                       # Number of instructions fetched each cycle (Total) (Count)
board.processor.cores.core.fetch.nisnDist::underflows            0      0.00%      0.00% # Number of instructions fetched each cycle (Total) (Count)
board.processor.cores.core.fetch.nisnDist::0      5048767     29.32%     29.32% # Number of instructions fetched each cycle (Total) (Count)
board.processor.cores.core.fetch.nisnDist::1      2050064     11.90%     41.22% # Number of instructions fetched each cycle (Total) (Count)
board.processor.cores.core.fetch.nisnDist::2     10123461     58.78%    100.00% # Number of instructions fetched each cycle (Total) (Count)
board.processor.cores.core.fetch.nisnDist::overflows            0      0.00%    100.00% # Number of instructions fetched each cycle (Total) (Count)
board.processor.cores.core.fetch.nisnDist::min_value            0                       # Number of instructions fetched each cycle (Total) (Count)
board.processor.cores.core.fetch.nisnDist::max_value            2                       # Number of instructions fetched each cycle (Total) (Count)
board.processor.cores.core.fetch.nisnDist::total     17222292                       # Number of instructions fetched each cycle (Total) (Count)
board.processor.cores.core.fetchStats0.numInsts     22221250                       # Number of instructions fetched (thread level) (Count)
board.processor.cores.core.fetchStats0.numOps            0                       # Number of ops (including micro ops) fetched (thread level) (Count)
board.processor.cores.core.fetchStats0.fetchRate     1.268725                       # Number of inst fetches per cycle ((Count/Cycle))
board.processor.cores.core.fetchStats0.numBranches      3917218                       # Number of branches fetched (Count)
board.processor.cores.core.fetchStats0.branchRate     0.223654                       # Number of branch fetches per cycle (Ratio)
board.processor.cores.core.fetchStats0.icacheStallCycles       168471                       # ICache total stall cycles (Cycle)
board.processor.cores.core.fetchStats0.numFetchSuspends            0                       # Number of times Execute suspended instruction fetching (Count)
board.processor.cores.core.iew.idleCycles            0                       # Number of cycles IEW is idle (Cycle)
board.processor.cores.core.iew.squashCycles       343052                       # Number of cycles IEW is squashing (Cycle)
board.processor.cores.core.iew.blockCycles          471                       # Number of cycles IEW is blocking (Cycle)
board.processor.cores.core.iew.unblockCycles         1211                       # Number of cycles IEW is unblocking (Cycle)
board.processor.cores.core.iew.dispatchedInsts     14702267                       # Number of instructions dispatched to IQ (Count)
board.processor.cores.core.iew.dispSquashedInsts       360846                       # Number of squashed instructions skipped by dispatch (Count)
board.processor.cores.core.iew.dispLoadInsts      2282179                       # Number of dispatched load instructions (Count)
board.processor.cores.core.iew.dispStoreInsts       984840                       # Number of dispatched store instructions (Count)
board.processor.cores.core.iew.dispNonSpecInsts        71852                       # Number of dispatched non-speculative instructions (Count)
board.processor.cores.core.iew.iqFullEvents            0                       # Number of times the IQ has become full, causing a stall (Count)
board.processor.cores.core.iew.lsqFullEvents         1211                       # Number of times the LSQ has become full, causing a stall (Count)
board.processor.cores.core.iew.memOrderViolationEvents           44                       # Number of memory order violations (Count)
board.processor.cores.core.iew.predictedTakenIncorrect       255357                       # Number of branches that were predicted taken incorrectly (Count)
board.processor.cores.core.iew.predictedNotTakenIncorrect       124336                       # Number of branches that were predicted not taken incorrectly (Count)
board.processor.cores.core.iew.branchMispredicts       379693                       # Number of branch mispredicts detected at execute (Count)
board.processor.cores.core.iew.instsToCommit     14168232                       # Cumulative count of insts sent to commit (Count)
board.processor.cores.core.iew.writebackCount     14164747                       # Cumulative count of insts written-back (Count)
board.processor.cores.core.iew.producerInst      5871946                       # Number of instructions producing a value (Count)
board.processor.cores.core.iew.consumerInst      6348180                       # Number of instructions consuming a value (Count)
board.processor.cores.core.iew.wbRate        0.808738                       # Insts written-back per cycle ((Count/Cycle))
board.processor.cores.core.iew.wbFanout      0.924981                       # Average fanout of values written-back ((Count/Count))
board.processor.cores.core.lsq0.forwLoads        28923                       # Number of loads that had data forwarded from stores (Count)
board.processor.cores.core.lsq0.squashedLoads       222393                       # Number of loads squashed (Count)
board.processor.cores.core.lsq0.ignoredResponses          239                       # Number of memory responses ignored because the instruction is squashed (Count)
board.processor.cores.core.lsq0.memOrderViolation           44                       # Number of memory ordering violations (Count)
board.processor.cores.core.lsq0.squashedStores       140068                       # Number of stores squashed (Count)
board.processor.cores.core.lsq0.rescheduledLoads            9                       # Number of loads that were rescheduled (Count)
board.processor.cores.core.lsq0.blockedByCache           13                       # Number of times an access to memory failed due to the cache being blocked (Count)
board.processor.cores.core.lsq0.loadToUse::samples      2059786                       # Distribution of cycle latency between the first time a load is issued and its completion (Unspecified)
board.processor.cores.core.lsq0.loadToUse::mean     2.264278                       # Distribution of cycle latency between the first time a load is issued and its completion (Unspecified)
board.processor.cores.core.lsq0.loadToUse::stdev     4.808169                       # Distribution of cycle latency between the first time a load is issued and its completion (Unspecified)
board.processor.cores.core.lsq0.loadToUse::0-9      2045566     99.31%     99.31% # Distribution of cycle latency between the first time a load is issued and its completion (Unspecified)
board.processor.cores.core.lsq0.loadToUse::10-19        13205      0.64%     99.95% # Distribution of cycle latency between the first time a load is issued and its completion (Unspecified)
board.processor.cores.core.lsq0.loadToUse::20-29           47      0.00%     99.95% # Distribution of cycle latency between the first time a load is issued and its completion (Unspecified)
board.processor.cores.core.lsq0.loadToUse::30-39          494      0.02%     99.98% # Distribution of cycle latency between the first time a load is issued and its completion (Unspecified)
board.processor.cores.core.lsq0.loadToUse::40-49           54      0.00%     99.98% # Distribution of cycle latency between the first time a load is issued and its completion (Unspecified)
board.processor.cores.core.lsq0.loadToUse::50-59            8      0.00%     99.98% # Distribution of cycle latency between the first time a load is issued and its completion (Unspecified)
board.processor.cores.core.lsq0.loadToUse::70-79            3      0.00%     99.98% # Distribution of cycle latency between the first time a load is issued and its completion (Unspecified)
board.processor.cores.core.lsq0.loadToUse::80-89            1      0.00%     99.98% # Distribution of cycle latency between the first time a load is issued and its completion (Unspecified)
board.processor.cores.core.lsq0.loadToUse::100-109            1      0.00%     99.98% # Distribution of cycle latency between the first time a load is issued and its completion (Unspecified)
board.processor.cores.core.lsq0.loadToUse::140-149            6      0.00%     99.98% # Distribution of cycle latency between the first time a load is issued and its completion (Unspecified)
board.processor.cores.core.lsq0.loadToUse::160-169            6      0.00%     99.98% # Distribution of cycle latency between the first time a load is issued and its completion (Unspecified)
board.processor.cores.core.lsq0.loadToUse::170-179            4      0.00%     99.98% # Distribution of cycle latency between the first time a load is issued and its completion (Unspecified)
board.processor.cores.core.lsq0.loadToUse::180-189            5      0.00%     99.98% # Distribution of cycle latency between the first time a load is issued and its completion (Unspecified)
board.processor.cores.core.lsq0.loadToUse::210-219            1      0.00%     99.98% # Distribution of cycle latency between the first time a load is issued and its completion (Unspecified)
board.processor.cores.core.lsq0.loadToUse::220-229            1      0.00%     99.98% # Distribution of cycle latency between the first time a load is issued and its completion (Unspecified)
board.processor.cores.core.lsq0.loadToUse::230-239            2      0.00%     99.98% # Distribution of cycle latency between the first time a load is issued and its completion (Unspecified)
board.processor.cores.core.lsq0.loadToUse::240-249            6      0.00%     99.98% # Distribution of cycle latency between the first time a load is issued and its completion (Unspecified)
board.processor.cores.core.lsq0.loadToUse::250-259            1      0.00%     99.98% # Distribution of cycle latency between the first time a load is issued and its completion (Unspecified)
board.processor.cores.core.lsq0.loadToUse::260-269           10      0.00%     99.98% # Distribution of cycle latency between the first time a load is issued and its completion (Unspecified)
board.processor.cores.core.lsq0.loadToUse::270-279          246      0.01%     99.99% # Distribution of cycle latency between the first time a load is issued and its completion (Unspecified)
board.processor.cores.core.lsq0.loadToUse::280-289           10      0.00%     99.99% # Distribution of cycle latency between the first time a load is issued and its completion (Unspecified)
board.processor.cores.core.lsq0.loadToUse::290-299           13      0.00%    100.00% # Distribution of cycle latency between the first time a load is issued and its completion (Unspecified)
board.processor.cores.core.lsq0.loadToUse::overflows           96      0.00%    100.00% # Distribution of cycle latency between the first time a load is issued and its completion (Unspecified)
board.processor.cores.core.lsq0.loadToUse::min_value            2                       # Distribution of cycle latency between the first time a load is issued and its completion (Unspecified)
board.processor.cores.core.lsq0.loadToUse::max_value          983                       # Distribution of cycle latency between the first time a load is issued and its completion (Unspecified)
board.processor.cores.core.lsq0.loadToUse::total      2059786                       # Distribution of cycle latency between the first time a load is issued and its completion (Unspecified)
board.processor.cores.core.mmu.dtb.readHits            0                       # read hits (Count)
board.processor.cores.core.mmu.dtb.readMisses            0                       # read misses (Count)
board.processor.cores.core.mmu.dtb.readAccesses            0                       # read accesses (Count)
board.processor.cores.core.mmu.dtb.writeHits            0                       # write hits (Count)
board.processor.cores.core.mmu.dtb.writeMisses            0                       # write misses (Count)
board.processor.cores.core.mmu.dtb.writeAccesses            0                       # write accesses (Count)
board.processor.cores.core.mmu.dtb.hits             0                       # Total TLB (read and write) hits (Count)
board.processor.cores.core.mmu.dtb.misses            0                       # Total TLB (read and write) misses (Count)
board.processor.cores.core.mmu.dtb.accesses            0                       # Total TLB (read and write) accesses (Count)
board.processor.cores.core.mmu.dtb.walker.num_4kb_walks            0                       # Completed page walks with 4KB pages (Count)
board.processor.cores.core.mmu.dtb.walker.num_2mb_walks            0                       # Completed page walks with 2MB pages (Count)
board.processor.cores.core.mmu.dtb.walker.power_state.pwrStateResidencyTicks::UNDEFINED   5832369792                       # Cumulative time (in ticks) in various power states (Tick)
board.processor.cores.core.mmu.itb.readHits            0                       # read hits (Count)
board.processor.cores.core.mmu.itb.readMisses            0                       # read misses (Count)
board.processor.cores.core.mmu.itb.readAccesses            0                       # read accesses (Count)
board.processor.cores.core.mmu.itb.writeHits            0                       # write hits (Count)
board.processor.cores.core.mmu.itb.writeMisses            0                       # write misses (Count)
board.processor.cores.core.mmu.itb.writeAccesses            0                       # write accesses (Count)
board.processor.cores.core.mmu.itb.hits             0                       # Total TLB (read and write) hits (Count)
board.processor.cores.core.mmu.itb.misses            0                       # Total TLB (read and write) misses (Count)
board.processor.cores.core.mmu.itb.accesses            0                       # Total TLB (read and write) accesses (Count)
board.processor.cores.core.mmu.itb.walker.num_4kb_walks            0                       # Completed page walks with 4KB pages (Count)
board.processor.cores.core.mmu.itb.walker.num_2mb_walks            0                       # Completed page walks with 2MB pages (Count)
board.processor.cores.core.mmu.itb.walker.power_state.pwrStateResidencyTicks::UNDEFINED   5832369792                       # Cumulative time (in ticks) in various power states (Tick)
board.processor.cores.core.power_state.pwrStateResidencyTicks::ON   5832369792                       # Cumulative time (in ticks) in various power states (Tick)
board.processor.cores.core.rename.squashCycles       343052                       # Number of cycles rename is squashing (Cycle)
board.processor.cores.core.rename.idleCycles      3437818                       # Number of cycles rename is idle (Cycle)
board.processor.cores.core.rename.blockCycles         1716                       # Number of cycles rename is blocking (Cycle)
board.processor.cores.core.rename.serializeStallCycles       106783                       # count of cycles rename stalled for serializing inst (Cycle)
board.processor.cores.core.rename.runCycles      6860316                       # Number of cycles rename is running (Cycle)
board.processor.cores.core.rename.unblockCycles      6472607                       # Number of cycles rename is unblocking (Cycle)
board.processor.cores.core.rename.renamedInsts     15532909                       # Number of instructions processed by rename (Count)
board.processor.cores.core.rename.ROBFullEvents            2                       # Number of times rename has blocked due to ROB full (Count)
board.processor.cores.core.rename.SQFullEvents        42787                       # Number of times rename has blocked due to SQ full (Count)
board.processor.cores.core.rename.fullRegistersEvents      5456682                       # Number of times there has been no free registers (Count)
board.processor.cores.core.rename.renamedOperands     11700679                       # Number of destination operands rename has renamed (Count)
board.processor.cores.core.rename.lookups     20043222                       # Number of register rename lookups that rename has made (Count)
board.processor.cores.core.rename.intLookups     19772476                       # Number of integer rename lookups (Count)
board.processor.cores.core.rename.fpLookups          337                       # Number of floating rename lookups (Count)
board.processor.cores.core.rename.committedMaps     10626421                       # Number of HB maps that are committed (Count)
board.processor.cores.core.rename.undoneMaps      1074258                       # Number of HB maps that are undone due to squashing (Count)
board.processor.cores.core.rename.serializing         4742                       # count of serializing insts renamed (Count)
board.processor.cores.core.rename.tempSerializing         4740                       # count of temporary serializing insts renamed (Count)
board.processor.cores.core.rename.skidInsts      4390246                       # count of insts added to the skid buffer (Count)
board.processor.cores.core.rob.reads         27460263                       # The number of ROB reads (Count)
board.processor.cores.core.rob.writes        29747451                       # The number of ROB writes (Count)
board.processor.cores.core.thread_0.numInsts     13703248                       # Number of Instructions committed (Count)
board.processor.cores.core.thread_0.numOps     13776881                       # Number of Ops committed (Count)
board.processor.cores.core.thread_0.numMemRefs            0                       # Number of Memory References (Count)
board.processor.cores.core.workload.numSyscalls          228                       # Number of system calls (Count)
board.workload.inst.arm                             0                       # number of arm instructions executed (Count)
board.workload.inst.quiesce                         0                       # number of quiesce instructions executed (Count)

---------- End Simulation Statistics   ----------
