
---------- Begin Simulation Statistics ----------
simSeconds                                   0.000226                       # Number of seconds simulated (Second)
simTicks                                    226137636                       # Number of ticks simulated (Tick)
finalTick                                   444910311                       # Number of ticks from beginning of simulation (restored from checkpoints and never reset) (Tick)
simFreq                                  1000000000000                       # The number of ticks per simulated second ((Tick/Second))
hostSeconds                                     15.06                       # Real time elapsed on the host (Second)
hostTickRate                                 15015691                       # The number of ticks simulated per host second (ticks/s) ((Tick/Second))
hostMemory                                    1547412                       # Number of bytes of host memory used (Byte)
simInsts                                      1704159                       # Number of instructions simulated (Count)
simOps                                        2846365                       # Number of ops (including micro ops) simulated (Count)
hostInstRate                                   113156                       # Simulator instruction rate (inst/s) ((Count/Second))
hostOpRate                                     188999                       # Simulator op (including micro ops) rate (op/s) ((Count/Second))
board.cache_hierarchy.ruby_system.delayHistogram::bucket_size            8                       # delay histogram for all message (Unspecified)
board.cache_hierarchy.ruby_system.delayHistogram::max_bucket           79                       # delay histogram for all message (Unspecified)
board.cache_hierarchy.ruby_system.delayHistogram::samples        12664                       # delay histogram for all message (Unspecified)
board.cache_hierarchy.ruby_system.delayHistogram::mean     0.367104                       # delay histogram for all message (Unspecified)
board.cache_hierarchy.ruby_system.delayHistogram::stdev     1.896691                       # delay histogram for all message (Unspecified)
board.cache_hierarchy.ruby_system.delayHistogram |       12230     96.57%     96.57% |         408      3.22%     99.79% |          15      0.12%     99.91% |           7      0.06%     99.97% |           1      0.01%     99.98% |           3      0.02%    100.00% |           0      0.00%    100.00% |           0      0.00%    100.00% |           0      0.00%    100.00% |           0      0.00%    100.00% # delay histogram for all message (Unspecified)
board.cache_hierarchy.ruby_system.delayHistogram::total        12664                       # delay histogram for all message (Unspecified)
board.cache_hierarchy.ruby_system.m_outstandReqHistSeqr::bucket_size            2                       (Unspecified)
board.cache_hierarchy.ruby_system.m_outstandReqHistSeqr::max_bucket           19                       (Unspecified)
board.cache_hierarchy.ruby_system.m_outstandReqHistSeqr::samples      1104859                       (Unspecified)
board.cache_hierarchy.ruby_system.m_outstandReqHistSeqr::mean     1.025989                       (Unspecified)
board.cache_hierarchy.ruby_system.m_outstandReqHistSeqr::gmean     1.015812                       (Unspecified)
board.cache_hierarchy.ruby_system.m_outstandReqHistSeqr::stdev     0.233004                       (Unspecified)
board.cache_hierarchy.ruby_system.m_outstandReqHistSeqr |     1083006     98.02%     98.02% |       20529      1.86%     99.88% |         984      0.09%     99.97% |         151      0.01%     99.98% |          83      0.01%     99.99% |          53      0.00%    100.00% |          25      0.00%    100.00% |          25      0.00%    100.00% |           3      0.00%    100.00% |           0      0.00%    100.00% (Unspecified)
board.cache_hierarchy.ruby_system.m_outstandReqHistSeqr::total      1104859                       (Unspecified)
board.cache_hierarchy.ruby_system.m_latencyHistSeqr::bucket_size          128                       (Unspecified)
board.cache_hierarchy.ruby_system.m_latencyHistSeqr::max_bucket         1279                       (Unspecified)
board.cache_hierarchy.ruby_system.m_latencyHistSeqr::samples      1105080                       (Unspecified)
board.cache_hierarchy.ruby_system.m_latencyHistSeqr::mean     1.151362                       (Unspecified)
board.cache_hierarchy.ruby_system.m_latencyHistSeqr::gmean     1.011456                       (Unspecified)
board.cache_hierarchy.ruby_system.m_latencyHistSeqr::stdev     4.799395                       (Unspecified)
board.cache_hierarchy.ruby_system.m_latencyHistSeqr |     1104406     99.94%     99.94% |         666      0.06%    100.00% |           1      0.00%    100.00% |           0      0.00%    100.00% |           0      0.00%    100.00% |           0      0.00%    100.00% |           1      0.00%    100.00% |           1      0.00%    100.00% |           3      0.00%    100.00% |           2      0.00%    100.00% (Unspecified)
board.cache_hierarchy.ruby_system.m_latencyHistSeqr::total      1105080                       (Unspecified)
board.cache_hierarchy.ruby_system.m_hitLatencyHistSeqr::bucket_size           16                       (Unspecified)
board.cache_hierarchy.ruby_system.m_hitLatencyHistSeqr::max_bucket          159                       (Unspecified)
board.cache_hierarchy.ruby_system.m_hitLatencyHistSeqr::samples      1101364                       (Unspecified)
board.cache_hierarchy.ruby_system.m_hitLatencyHistSeqr::mean     1.000416                       (Unspecified)
board.cache_hierarchy.ruby_system.m_hitLatencyHistSeqr::gmean     1.000154                       (Unspecified)
board.cache_hierarchy.ruby_system.m_hitLatencyHistSeqr::stdev     0.145349                       (Unspecified)
board.cache_hierarchy.ruby_system.m_hitLatencyHistSeqr |     1101361    100.00%    100.00% |           0      0.00%    100.00% |           1      0.00%    100.00% |           1      0.00%    100.00% |           0      0.00%    100.00% |           0      0.00%    100.00% |           0      0.00%    100.00% |           0      0.00%    100.00% |           1      0.00%    100.00% |           0      0.00%    100.00% (Unspecified)
board.cache_hierarchy.ruby_system.m_hitLatencyHistSeqr::total      1101364                       (Unspecified)
board.cache_hierarchy.ruby_system.m_missLatencyHistSeqr::bucket_size          128                       (Unspecified)
board.cache_hierarchy.ruby_system.m_missLatencyHistSeqr::max_bucket         1279                       (Unspecified)
board.cache_hierarchy.ruby_system.m_missLatencyHistSeqr::samples         3716                       (Unspecified)
board.cache_hierarchy.ruby_system.m_missLatencyHistSeqr::mean    45.889397                       (Unspecified)
board.cache_hierarchy.ruby_system.m_missLatencyHistSeqr::gmean    28.268707                       (Unspecified)
board.cache_hierarchy.ruby_system.m_missLatencyHistSeqr::stdev    69.547074                       (Unspecified)
board.cache_hierarchy.ruby_system.m_missLatencyHistSeqr |        3043     81.89%     81.89% |         665     17.90%     99.78% |           1      0.03%     99.81% |           0      0.00%     99.81% |           0      0.00%     99.81% |           0      0.00%     99.81% |           1      0.03%     99.84% |           1      0.03%     99.87% |           3      0.08%     99.95% |           2      0.05%    100.00% (Unspecified)
board.cache_hierarchy.ruby_system.m_missLatencyHistSeqr::total         3716                       (Unspecified)
board.cache_hierarchy.ruby_system.delayVCHist.vnet_0::bucket_size            4                       # delay histogram for vnet_0 (Unspecified)
board.cache_hierarchy.ruby_system.delayVCHist.vnet_0::max_bucket           39                       # delay histogram for vnet_0 (Unspecified)
board.cache_hierarchy.ruby_system.delayVCHist.vnet_0::samples         6823                       # delay histogram for vnet_0 (Unspecified)
board.cache_hierarchy.ruby_system.delayVCHist.vnet_0::mean     0.303532                       # delay histogram for vnet_0 (Unspecified)
board.cache_hierarchy.ruby_system.delayVCHist.vnet_0::stdev     1.564615                       # delay histogram for vnet_0 (Unspecified)
board.cache_hierarchy.ruby_system.delayVCHist.vnet_0 |        6572     96.32%     96.32% |          33      0.48%     96.80% |         209      3.06%     99.87% |           5      0.07%     99.94% |           2      0.03%     99.97% |           0      0.00%     99.97% |           2      0.03%    100.00% |           0      0.00%    100.00% |           0      0.00%    100.00% |           0      0.00%    100.00% # delay histogram for vnet_0 (Unspecified)
board.cache_hierarchy.ruby_system.delayVCHist.vnet_0::total         6823                       # delay histogram for vnet_0 (Unspecified)
board.cache_hierarchy.ruby_system.delayVCHist.vnet_1::bucket_size            8                       # delay histogram for vnet_1 (Unspecified)
board.cache_hierarchy.ruby_system.delayVCHist.vnet_1::max_bucket           79                       # delay histogram for vnet_1 (Unspecified)
board.cache_hierarchy.ruby_system.delayVCHist.vnet_1::samples         5340                       # delay histogram for vnet_1 (Unspecified)
board.cache_hierarchy.ruby_system.delayVCHist.vnet_1::mean     0.482772                       # delay histogram for vnet_1 (Unspecified)
board.cache_hierarchy.ruby_system.delayVCHist.vnet_1::stdev     2.318012                       # delay histogram for vnet_1 (Unspecified)
board.cache_hierarchy.ruby_system.delayVCHist.vnet_1 |        5124     95.96%     95.96% |         194      3.63%     99.59% |          13      0.24%     99.83% |           5      0.09%     99.93% |           1      0.02%     99.94% |           3      0.06%    100.00% |           0      0.00%    100.00% |           0      0.00%    100.00% |           0      0.00%    100.00% |           0      0.00%    100.00% # delay histogram for vnet_1 (Unspecified)
board.cache_hierarchy.ruby_system.delayVCHist.vnet_1::total         5340                       # delay histogram for vnet_1 (Unspecified)
board.cache_hierarchy.ruby_system.delayVCHist.vnet_2::bucket_size            1                       # delay histogram for vnet_2 (Unspecified)
board.cache_hierarchy.ruby_system.delayVCHist.vnet_2::max_bucket            9                       # delay histogram for vnet_2 (Unspecified)
board.cache_hierarchy.ruby_system.delayVCHist.vnet_2::samples          501                       # delay histogram for vnet_2 (Unspecified)
board.cache_hierarchy.ruby_system.delayVCHist.vnet_2 |         501    100.00%    100.00% |           0      0.00%    100.00% |           0      0.00%    100.00% |           0      0.00%    100.00% |           0      0.00%    100.00% |           0      0.00%    100.00% |           0      0.00%    100.00% |           0      0.00%    100.00% |           0      0.00%    100.00% |           0      0.00%    100.00% # delay histogram for vnet_2 (Unspecified)
board.cache_hierarchy.ruby_system.delayVCHist.vnet_2::total          501                       # delay histogram for vnet_2 (Unspecified)
board.cache_hierarchy.ruby_system.Directory_Controller.Fetch          668      0.00%      0.00% (Unspecified)
board.cache_hierarchy.ruby_system.Directory_Controller.Memory_Data          668      0.00%      0.00% (Unspecified)
board.cache_hierarchy.ruby_system.Directory_Controller.I.Fetch          668      0.00%      0.00% (Unspecified)
board.cache_hierarchy.ruby_system.Directory_Controller.IM.Memory_Data          668      0.00%      0.00% (Unspecified)
board.cache_hierarchy.ruby_system.L1Cache_Controller.Load |        3552      1.18%      1.18% |       74309     24.72%     25.90% |       74275     24.70%     50.60% |       74268     24.70%     75.30% |       74252     24.70%    100.00% (Unspecified)
board.cache_hierarchy.ruby_system.L1Cache_Controller.Load::total       300656                       (Unspecified)
board.cache_hierarchy.ruby_system.L1Cache_Controller.Ifetch |        6001      1.12%      1.12% |      131850     24.71%     25.83% |      131934     24.72%     50.55% |      131981     24.73%     75.29% |      131882     24.71%    100.00% (Unspecified)
board.cache_hierarchy.ruby_system.L1Cache_Controller.Ifetch::total       533648                       (Unspecified)
board.cache_hierarchy.ruby_system.L1Cache_Controller.Store |        5926      2.19%      2.19% |       66286     24.48%     26.67% |       66287     24.48%     51.15% |       66284     24.48%     75.63% |       65993     24.37%    100.00% (Unspecified)
board.cache_hierarchy.ruby_system.L1Cache_Controller.Store::total       270776                       (Unspecified)
board.cache_hierarchy.ruby_system.L1Cache_Controller.Inv |          23     45.10%     45.10% |           6     11.76%     56.86% |          14     27.45%     84.31% |           4      7.84%     92.16% |           4      7.84%    100.00% (Unspecified)
board.cache_hierarchy.ruby_system.L1Cache_Controller.Inv::total           51                       (Unspecified)
board.cache_hierarchy.ruby_system.L1Cache_Controller.L1_Replacement |         469     54.66%     54.66% |         101     11.77%     66.43% |         105     12.24%     78.67% |         106     12.35%     91.03% |          77      8.97%    100.00% (Unspecified)
board.cache_hierarchy.ruby_system.L1Cache_Controller.L1_Replacement::total          858                       (Unspecified)
board.cache_hierarchy.ruby_system.L1Cache_Controller.Fwd_GETX |          12     33.33%     33.33% |           5     13.89%     47.22% |          14     38.89%     86.11% |           4     11.11%     97.22% |           1      2.78%    100.00% (Unspecified)
board.cache_hierarchy.ruby_system.L1Cache_Controller.Fwd_GETX::total           36                       (Unspecified)
board.cache_hierarchy.ruby_system.L1Cache_Controller.Fwd_GETS |         376     90.82%     90.82% |          11      2.66%     93.48% |          14      3.38%     96.86% |           8      1.93%     98.79% |           5      1.21%    100.00% (Unspecified)
board.cache_hierarchy.ruby_system.L1Cache_Controller.Fwd_GETS::total          414                       (Unspecified)
board.cache_hierarchy.ruby_system.L1Cache_Controller.Data_Exclusive |          49      2.68%      2.68% |         528     28.90%     31.58% |         526     28.79%     60.37% |         523     28.63%     89.00% |         201     11.00%    100.00% (Unspecified)
board.cache_hierarchy.ruby_system.L1Cache_Controller.Data_Exclusive::total         1827                       (Unspecified)
board.cache_hierarchy.ruby_system.L1Cache_Controller.DataS_fromL1 |           9      2.17%      2.17% |          25      6.04%      8.21% |          19      4.59%     12.80% |          18      4.35%     17.15% |         343     82.85%    100.00% (Unspecified)
board.cache_hierarchy.ruby_system.L1Cache_Controller.DataS_fromL1::total          414                       (Unspecified)
board.cache_hierarchy.ruby_system.L1Cache_Controller.Data_all_Acks |         419     29.28%     29.28% |         253     17.68%     46.96% |         271     18.94%     65.90% |         274     19.15%     85.05% |         214     14.95%    100.00% (Unspecified)
board.cache_hierarchy.ruby_system.L1Cache_Controller.Data_all_Acks::total         1431                       (Unspecified)
board.cache_hierarchy.ruby_system.L1Cache_Controller.Ack |           4      7.84%      7.84% |          16     31.37%     39.22% |           7     13.73%     52.94% |          14     27.45%     80.39% |          10     19.61%    100.00% (Unspecified)
board.cache_hierarchy.ruby_system.L1Cache_Controller.Ack::total           51                       (Unspecified)
board.cache_hierarchy.ruby_system.L1Cache_Controller.Ack_all |           4      9.09%      9.09% |          12     27.27%     36.36% |           7     15.91%     52.27% |          11     25.00%     77.27% |          10     22.73%    100.00% (Unspecified)
board.cache_hierarchy.ruby_system.L1Cache_Controller.Ack_all::total           44                       (Unspecified)
board.cache_hierarchy.ruby_system.L1Cache_Controller.WB_Ack |         153     31.16%     31.16% |          95     19.35%     50.51% |          98     19.96%     70.47% |          98     19.96%     90.43% |          47      9.57%    100.00% (Unspecified)
board.cache_hierarchy.ruby_system.L1Cache_Controller.WB_Ack::total          491                       (Unspecified)
board.cache_hierarchy.ruby_system.L1Cache_Controller.NP.Load |          57      2.50%      2.50% |         552     24.19%     26.69% |         556     24.36%     51.05% |         556     24.36%     75.42% |         561     24.58%    100.00% (Unspecified)
board.cache_hierarchy.ruby_system.L1Cache_Controller.NP.Load::total         2282                       (Unspecified)
board.cache_hierarchy.ruby_system.L1Cache_Controller.NP.Ifetch |         301     28.75%     28.75% |         190     18.15%     46.90% |         195     18.62%     65.52% |         195     18.62%     84.15% |         166     15.85%    100.00% (Unspecified)
board.cache_hierarchy.ruby_system.L1Cache_Controller.NP.Ifetch::total         1047                       (Unspecified)
board.cache_hierarchy.ruby_system.L1Cache_Controller.NP.Store |         109     34.17%     34.17% |          61     19.12%     53.29% |          60     18.81%     72.10% |          61     19.12%     91.22% |          28      8.78%    100.00% (Unspecified)
board.cache_hierarchy.ruby_system.L1Cache_Controller.NP.Store::total          319                       (Unspecified)
board.cache_hierarchy.ruby_system.L1Cache_Controller.I.Load |           6     50.00%     50.00% |           3     25.00%     75.00% |           1      8.33%     83.33% |           2     16.67%    100.00% |           0      0.00%    100.00% (Unspecified)
board.cache_hierarchy.ruby_system.L1Cache_Controller.I.Load::total           12                       (Unspecified)
board.cache_hierarchy.ruby_system.L1Cache_Controller.I.Store |           4     33.33%     33.33% |           0      0.00%     33.33% |           4     33.33%     66.67% |           1      8.33%     75.00% |           3     25.00%    100.00% (Unspecified)
board.cache_hierarchy.ruby_system.L1Cache_Controller.I.Store::total           12                       (Unspecified)
board.cache_hierarchy.ruby_system.L1Cache_Controller.I.L1_Replacement |           1     50.00%     50.00% |           1     50.00%    100.00% |           0      0.00%    100.00% |           0      0.00%    100.00% |           0      0.00%    100.00% (Unspecified)
board.cache_hierarchy.ruby_system.L1Cache_Controller.I.L1_Replacement::total            2                       (Unspecified)
board.cache_hierarchy.ruby_system.L1Cache_Controller.S.Load |          63      1.20%      1.20% |          71      1.35%      2.55% |          88      1.68%      4.23% |          85      1.62%      5.85% |        4939     94.15%    100.00% (Unspecified)
board.cache_hierarchy.ruby_system.L1Cache_Controller.S.Load::total         5246                       (Unspecified)
board.cache_hierarchy.ruby_system.L1Cache_Controller.S.Ifetch |        5700      1.07%      1.07% |      131660     24.72%     25.79% |      131739     24.74%     50.53% |      131786     24.74%     75.27% |      131716     24.73%    100.00% (Unspecified)
board.cache_hierarchy.ruby_system.L1Cache_Controller.S.Ifetch::total       532601                       (Unspecified)
board.cache_hierarchy.ruby_system.L1Cache_Controller.S.Store |           4      9.09%      9.09% |          12     27.27%     36.36% |           7     15.91%     52.27% |          11     25.00%     77.27% |          10     22.73%    100.00% (Unspecified)
board.cache_hierarchy.ruby_system.L1Cache_Controller.S.Store::total           44                       (Unspecified)
board.cache_hierarchy.ruby_system.L1Cache_Controller.S.Inv |          23     45.10%     45.10% |           6     11.76%     56.86% |          14     27.45%     84.31% |           4      7.84%     92.16% |           4      7.84%    100.00% (Unspecified)
board.cache_hierarchy.ruby_system.L1Cache_Controller.S.Inv::total           51                       (Unspecified)
board.cache_hierarchy.ruby_system.L1Cache_Controller.S.L1_Replacement |         315     86.30%     86.30% |           5      1.37%     87.67% |           7      1.92%     89.59% |           8      2.19%     91.78% |          30      8.22%    100.00% (Unspecified)
board.cache_hierarchy.ruby_system.L1Cache_Controller.S.L1_Replacement::total          365                       (Unspecified)
board.cache_hierarchy.ruby_system.L1Cache_Controller.E.Load |         464      1.76%      1.76% |        7685     29.17%     30.93% |        7687     29.18%     60.11% |        7686     29.17%     89.28% |        2825     10.72%    100.00% (Unspecified)
board.cache_hierarchy.ruby_system.L1Cache_Controller.E.Load::total        26347                       (Unspecified)
board.cache_hierarchy.ruby_system.L1Cache_Controller.E.Store |          22     41.51%     41.51% |           7     13.21%     54.72% |           9     16.98%     71.70% |           7     13.21%     84.91% |           8     15.09%    100.00% (Unspecified)
board.cache_hierarchy.ruby_system.L1Cache_Controller.E.Store::total           53                       (Unspecified)
board.cache_hierarchy.ruby_system.L1Cache_Controller.E.L1_Replacement |           2      0.68%      0.68% |          84     28.67%     29.35% |          86     29.35%     58.70% |          86     29.35%     88.05% |          35     11.95%    100.00% (Unspecified)
board.cache_hierarchy.ruby_system.L1Cache_Controller.E.L1_Replacement::total          293                       (Unspecified)
board.cache_hierarchy.ruby_system.L1Cache_Controller.E.Fwd_GETS |           8     44.44%     44.44% |           5     27.78%     72.22% |           2     11.11%     83.33% |           1      5.56%     88.89% |           2     11.11%    100.00% (Unspecified)
board.cache_hierarchy.ruby_system.L1Cache_Controller.E.Fwd_GETS::total           18                       (Unspecified)
board.cache_hierarchy.ruby_system.L1Cache_Controller.M.Load |        2962      1.11%      1.11% |       65998     24.74%     25.85% |       65943     24.72%     50.57% |       65939     24.72%     75.29% |       65927     24.71%    100.00% (Unspecified)
board.cache_hierarchy.ruby_system.L1Cache_Controller.M.Load::total       266769                       (Unspecified)
board.cache_hierarchy.ruby_system.L1Cache_Controller.M.Store |        5787      2.14%      2.14% |       66206     24.49%     26.63% |       66207     24.49%     51.12% |       66204     24.49%     75.61% |       65944     24.39%    100.00% (Unspecified)
board.cache_hierarchy.ruby_system.L1Cache_Controller.M.Store::total       270348                       (Unspecified)
board.cache_hierarchy.ruby_system.L1Cache_Controller.M.L1_Replacement |         151     76.26%     76.26% |          11      5.56%     81.82% |          12      6.06%     87.88% |          12      6.06%     93.94% |          12      6.06%    100.00% (Unspecified)
board.cache_hierarchy.ruby_system.L1Cache_Controller.M.L1_Replacement::total          198                       (Unspecified)
board.cache_hierarchy.ruby_system.L1Cache_Controller.M.Fwd_GETX |          12     33.33%     33.33% |           5     13.89%     47.22% |          14     38.89%     86.11% |           4     11.11%     97.22% |           1      2.78%    100.00% (Unspecified)
board.cache_hierarchy.ruby_system.L1Cache_Controller.M.Fwd_GETX::total           36                       (Unspecified)
board.cache_hierarchy.ruby_system.L1Cache_Controller.M.Fwd_GETS |         368     92.93%     92.93% |           6      1.52%     94.44% |          12      3.03%     97.47% |           7      1.77%     99.24% |           3      0.76%    100.00% (Unspecified)
board.cache_hierarchy.ruby_system.L1Cache_Controller.M.Fwd_GETS::total          396                       (Unspecified)
board.cache_hierarchy.ruby_system.L1Cache_Controller.IS.Data_Exclusive |          49      2.68%      2.68% |         528     28.90%     31.58% |         526     28.79%     60.37% |         523     28.63%     89.00% |         201     11.00%    100.00% (Unspecified)
board.cache_hierarchy.ruby_system.L1Cache_Controller.IS.Data_Exclusive::total         1827                       (Unspecified)
board.cache_hierarchy.ruby_system.L1Cache_Controller.IS.DataS_fromL1 |           9      2.17%      2.17% |          25      6.04%      8.21% |          19      4.59%     12.80% |          18      4.35%     17.15% |         343     82.85%    100.00% (Unspecified)
board.cache_hierarchy.ruby_system.L1Cache_Controller.IS.DataS_fromL1::total          414                       (Unspecified)
board.cache_hierarchy.ruby_system.L1Cache_Controller.IS.Data_all_Acks |         306     27.82%     27.82% |         192     17.45%     45.27% |         207     18.82%     64.09% |         212     19.27%     83.36% |         183     16.64%    100.00% (Unspecified)
board.cache_hierarchy.ruby_system.L1Cache_Controller.IS.Data_all_Acks::total         1100                       (Unspecified)
board.cache_hierarchy.ruby_system.L1Cache_Controller.IM.Data_all_Acks |         113     34.14%     34.14% |          61     18.43%     52.57% |          64     19.34%     71.90% |          62     18.73%     90.63% |          31      9.37%    100.00% (Unspecified)
board.cache_hierarchy.ruby_system.L1Cache_Controller.IM.Data_all_Acks::total          331                       (Unspecified)
board.cache_hierarchy.ruby_system.L1Cache_Controller.SM.Ack |           4      7.84%      7.84% |          16     31.37%     39.22% |           7     13.73%     52.94% |          14     27.45%     80.39% |          10     19.61%    100.00% (Unspecified)
board.cache_hierarchy.ruby_system.L1Cache_Controller.SM.Ack::total           51                       (Unspecified)
board.cache_hierarchy.ruby_system.L1Cache_Controller.SM.Ack_all |           4      9.09%      9.09% |          12     27.27%     36.36% |           7     15.91%     52.27% |          11     25.00%     77.27% |          10     22.73%    100.00% (Unspecified)
board.cache_hierarchy.ruby_system.L1Cache_Controller.SM.Ack_all::total           44                       (Unspecified)
board.cache_hierarchy.ruby_system.L1Cache_Controller.M_I.WB_Ack |         153     31.16%     31.16% |          95     19.35%     50.51% |          98     19.96%     70.47% |          98     19.96%     90.43% |          47      9.57%    100.00% (Unspecified)
board.cache_hierarchy.ruby_system.L1Cache_Controller.M_I.WB_Ack::total          491                       (Unspecified)
board.cache_hierarchy.ruby_system.L2Cache_Controller.L1_GET_INSTR |         264     25.21%     25.21% |         262     25.02%     50.24% |         266     25.41%     75.64% |         255     24.36%    100.00% (Unspecified)
board.cache_hierarchy.ruby_system.L2Cache_Controller.L1_GET_INSTR::total         1047                       (Unspecified)
board.cache_hierarchy.ruby_system.L2Cache_Controller.L1_GETS |         562     24.49%     24.49% |         591     25.75%     50.24% |         586     25.53%     75.77% |         556     24.23%    100.00% (Unspecified)
board.cache_hierarchy.ruby_system.L2Cache_Controller.L1_GETS::total         2295                       (Unspecified)
board.cache_hierarchy.ruby_system.L2Cache_Controller.L1_GETX |          87     26.28%     26.28% |          90     27.19%     53.47% |          80     24.17%     77.64% |          74     22.36%    100.00% (Unspecified)
board.cache_hierarchy.ruby_system.L2Cache_Controller.L1_GETX::total          331                       (Unspecified)
board.cache_hierarchy.ruby_system.L2Cache_Controller.L1_UPGRADE |           4      9.09%      9.09% |          24     54.55%     63.64% |          14     31.82%     95.45% |           2      4.55%    100.00% (Unspecified)
board.cache_hierarchy.ruby_system.L2Cache_Controller.L1_UPGRADE::total           44                       (Unspecified)
board.cache_hierarchy.ruby_system.L2Cache_Controller.L1_PUTX |         116     23.63%     23.63% |         134     27.29%     50.92% |         132     26.88%     77.80% |         109     22.20%    100.00% (Unspecified)
board.cache_hierarchy.ruby_system.L2Cache_Controller.L1_PUTX::total          491                       (Unspecified)
board.cache_hierarchy.ruby_system.L2Cache_Controller.Mem_Data |         166     24.85%     24.85% |         173     25.90%     50.75% |         167     25.00%     75.75% |         162     24.25%    100.00% (Unspecified)
board.cache_hierarchy.ruby_system.L2Cache_Controller.Mem_Data::total          668                       (Unspecified)
board.cache_hierarchy.ruby_system.L2Cache_Controller.WB_Data |          91     22.98%     22.98% |         113     28.54%     51.52% |          99     25.00%     76.52% |          93     23.48%    100.00% (Unspecified)
board.cache_hierarchy.ruby_system.L2Cache_Controller.WB_Data::total          396                       (Unspecified)
board.cache_hierarchy.ruby_system.L2Cache_Controller.WB_Data_clean |           6     33.33%     33.33% |           3     16.67%     50.00% |           6     33.33%     83.33% |           3     16.67%    100.00% (Unspecified)
board.cache_hierarchy.ruby_system.L2Cache_Controller.WB_Data_clean::total           18                       (Unspecified)
board.cache_hierarchy.ruby_system.L2Cache_Controller.Unblock |          97     23.43%     23.43% |         116     28.02%     51.45% |         105     25.36%     76.81% |          96     23.19%    100.00% (Unspecified)
board.cache_hierarchy.ruby_system.L2Cache_Controller.Unblock::total          414                       (Unspecified)
board.cache_hierarchy.ruby_system.L2Cache_Controller.Exclusive_Unblock |         544     24.70%     24.70% |         576     26.16%     50.86% |         556     25.25%     76.11% |         526     23.89%    100.00% (Unspecified)
board.cache_hierarchy.ruby_system.L2Cache_Controller.Exclusive_Unblock::total         2202                       (Unspecified)
board.cache_hierarchy.ruby_system.L2Cache_Controller.NP.L1_GET_INSTR |          90     24.46%     24.46% |          91     24.73%     49.18% |          94     25.54%     74.73% |          93     25.27%    100.00% (Unspecified)
board.cache_hierarchy.ruby_system.L2Cache_Controller.NP.L1_GET_INSTR::total          368                       (Unspecified)
board.cache_hierarchy.ruby_system.L2Cache_Controller.NP.L1_GETS |           7     26.92%     26.92% |           8     30.77%     57.69% |           5     19.23%     76.92% |           6     23.08%    100.00% (Unspecified)
board.cache_hierarchy.ruby_system.L2Cache_Controller.NP.L1_GETS::total           26                       (Unspecified)
board.cache_hierarchy.ruby_system.L2Cache_Controller.NP.L1_GETX |          69     25.18%     25.18% |          74     27.01%     52.19% |          68     24.82%     77.01% |          63     22.99%    100.00% (Unspecified)
board.cache_hierarchy.ruby_system.L2Cache_Controller.NP.L1_GETX::total          274                       (Unspecified)
board.cache_hierarchy.ruby_system.L2Cache_Controller.SS.L1_GET_INSTR |         173     25.74%     25.74% |         170     25.30%     51.04% |         169     25.15%     76.19% |         160     23.81%    100.00% (Unspecified)
board.cache_hierarchy.ruby_system.L2Cache_Controller.SS.L1_GET_INSTR::total          672                       (Unspecified)
board.cache_hierarchy.ruby_system.L2Cache_Controller.SS.L1_GETS |          12     22.64%     22.64% |          12     22.64%     45.28% |          19     35.85%     81.13% |          10     18.87%    100.00% (Unspecified)
board.cache_hierarchy.ruby_system.L2Cache_Controller.SS.L1_GETS::total           53                       (Unspecified)
board.cache_hierarchy.ruby_system.L2Cache_Controller.SS.L1_UPGRADE |           4      9.09%      9.09% |          24     54.55%     63.64% |          14     31.82%     95.45% |           2      4.55%    100.00% (Unspecified)
board.cache_hierarchy.ruby_system.L2Cache_Controller.SS.L1_UPGRADE::total           44                       (Unspecified)
board.cache_hierarchy.ruby_system.L2Cache_Controller.M.L1_GETS |         446     24.76%     24.76% |         454     25.21%     49.97% |         457     25.37%     75.35% |         444     24.65%    100.00% (Unspecified)
board.cache_hierarchy.ruby_system.L2Cache_Controller.M.L1_GETS::total         1801                       (Unspecified)
board.cache_hierarchy.ruby_system.L2Cache_Controller.M.L1_GETX |           4     19.05%     19.05% |           7     33.33%     52.38% |           5     23.81%     76.19% |           5     23.81%    100.00% (Unspecified)
board.cache_hierarchy.ruby_system.L2Cache_Controller.M.L1_GETX::total           21                       (Unspecified)
board.cache_hierarchy.ruby_system.L2Cache_Controller.MT.L1_GETS |          97     23.43%     23.43% |         116     28.02%     51.45% |         105     25.36%     76.81% |          96     23.19%    100.00% (Unspecified)
board.cache_hierarchy.ruby_system.L2Cache_Controller.MT.L1_GETS::total          414                       (Unspecified)
board.cache_hierarchy.ruby_system.L2Cache_Controller.MT.L1_GETX |          14     38.89%     38.89% |           9     25.00%     63.89% |           7     19.44%     83.33% |           6     16.67%    100.00% (Unspecified)
board.cache_hierarchy.ruby_system.L2Cache_Controller.MT.L1_GETX::total           36                       (Unspecified)
board.cache_hierarchy.ruby_system.L2Cache_Controller.MT.L1_PUTX |         116     23.63%     23.63% |         134     27.29%     50.92% |         132     26.88%     77.80% |         109     22.20%    100.00% (Unspecified)
board.cache_hierarchy.ruby_system.L2Cache_Controller.MT.L1_PUTX::total          491                       (Unspecified)
board.cache_hierarchy.ruby_system.L2Cache_Controller.ISS.Mem_Data |           7     26.92%     26.92% |           8     30.77%     57.69% |           5     19.23%     76.92% |           6     23.08%    100.00% (Unspecified)
board.cache_hierarchy.ruby_system.L2Cache_Controller.ISS.Mem_Data::total           26                       (Unspecified)
board.cache_hierarchy.ruby_system.L2Cache_Controller.IS.L1_GET_INSTR |           1     14.29%     14.29% |           1     14.29%     28.57% |           3     42.86%     71.43% |           2     28.57%    100.00% (Unspecified)
board.cache_hierarchy.ruby_system.L2Cache_Controller.IS.L1_GET_INSTR::total            7                       (Unspecified)
board.cache_hierarchy.ruby_system.L2Cache_Controller.IS.Mem_Data |          90     24.46%     24.46% |          91     24.73%     49.18% |          94     25.54%     74.73% |          93     25.27%    100.00% (Unspecified)
board.cache_hierarchy.ruby_system.L2Cache_Controller.IS.Mem_Data::total          368                       (Unspecified)
board.cache_hierarchy.ruby_system.L2Cache_Controller.IM.Mem_Data |          69     25.18%     25.18% |          74     27.01%     52.19% |          68     24.82%     77.01% |          63     22.99%    100.00% (Unspecified)
board.cache_hierarchy.ruby_system.L2Cache_Controller.IM.Mem_Data::total          274                       (Unspecified)
board.cache_hierarchy.ruby_system.L2Cache_Controller.SS_MB.L1_GETS |           0      0.00%      0.00% |           1    100.00%    100.00% |           0      0.00%    100.00% |           0      0.00%    100.00% (Unspecified)
board.cache_hierarchy.ruby_system.L2Cache_Controller.SS_MB.L1_GETS::total            1                       (Unspecified)
board.cache_hierarchy.ruby_system.L2Cache_Controller.SS_MB.Exclusive_Unblock |           4      9.09%      9.09% |          24     54.55%     63.64% |          14     31.82%     95.45% |           2      4.55%    100.00% (Unspecified)
board.cache_hierarchy.ruby_system.L2Cache_Controller.SS_MB.Exclusive_Unblock::total           44                       (Unspecified)
board.cache_hierarchy.ruby_system.L2Cache_Controller.MT_MB.Exclusive_Unblock |         540     25.02%     25.02% |         552     25.58%     50.60% |         542     25.12%     75.72% |         524     24.28%    100.00% (Unspecified)
board.cache_hierarchy.ruby_system.L2Cache_Controller.MT_MB.Exclusive_Unblock::total         2158                       (Unspecified)
board.cache_hierarchy.ruby_system.L2Cache_Controller.MT_IIB.WB_Data |          91     23.21%     23.21% |         109     27.81%     51.02% |          99     25.26%     76.28% |          93     23.72%    100.00% (Unspecified)
board.cache_hierarchy.ruby_system.L2Cache_Controller.MT_IIB.WB_Data::total          392                       (Unspecified)
board.cache_hierarchy.ruby_system.L2Cache_Controller.MT_IIB.WB_Data_clean |           6     33.33%     33.33% |           3     16.67%     50.00% |           6     33.33%     83.33% |           3     16.67%    100.00% (Unspecified)
board.cache_hierarchy.ruby_system.L2Cache_Controller.MT_IIB.WB_Data_clean::total           18                       (Unspecified)
board.cache_hierarchy.ruby_system.L2Cache_Controller.MT_IIB.Unblock |           0      0.00%      0.00% |           4    100.00%    100.00% |           0      0.00%    100.00% |           0      0.00%    100.00% (Unspecified)
board.cache_hierarchy.ruby_system.L2Cache_Controller.MT_IIB.Unblock::total            4                       (Unspecified)
board.cache_hierarchy.ruby_system.L2Cache_Controller.MT_IB.WB_Data |           0      0.00%      0.00% |           4    100.00%    100.00% |           0      0.00%    100.00% |           0      0.00%    100.00% (Unspecified)
board.cache_hierarchy.ruby_system.L2Cache_Controller.MT_IB.WB_Data::total            4                       (Unspecified)
board.cache_hierarchy.ruby_system.L2Cache_Controller.MT_SB.Unblock |          97     23.66%     23.66% |         112     27.32%     50.98% |         105     25.61%     76.59% |          96     23.41%    100.00% (Unspecified)
board.cache_hierarchy.ruby_system.L2Cache_Controller.MT_SB.Unblock::total          410                       (Unspecified)
board.cache_hierarchy.ruby_system.RequestType.LD.latency_hist_seqr::bucket_size           32                       (Unspecified)
board.cache_hierarchy.ruby_system.RequestType.LD.latency_hist_seqr::max_bucket          319                       (Unspecified)
board.cache_hierarchy.ruby_system.RequestType.LD.latency_hist_seqr::samples       300656                       (Unspecified)
board.cache_hierarchy.ruby_system.RequestType.LD.latency_hist_seqr::mean     1.159674                       (Unspecified)
board.cache_hierarchy.ruby_system.RequestType.LD.latency_hist_seqr::gmean     1.023160                       (Unspecified)
board.cache_hierarchy.ruby_system.RequestType.LD.latency_hist_seqr::stdev     2.452970                       (Unspecified)
board.cache_hierarchy.ruby_system.RequestType.LD.latency_hist_seqr |      300610     99.98%     99.98% |          20      0.01%     99.99% |           0      0.00%     99.99% |           0      0.00%     99.99% |           7      0.00%     99.99% |           8      0.00%    100.00% |           5      0.00%    100.00% |           6      0.00%    100.00% |           0      0.00%    100.00% |           0      0.00%    100.00% (Unspecified)
board.cache_hierarchy.ruby_system.RequestType.LD.latency_hist_seqr::total       300656                       (Unspecified)
board.cache_hierarchy.ruby_system.RequestType.LD.hit_latency_hist_seqr::bucket_size            1                       (Unspecified)
board.cache_hierarchy.ruby_system.RequestType.LD.hit_latency_hist_seqr::max_bucket            9                       (Unspecified)
board.cache_hierarchy.ruby_system.RequestType.LD.hit_latency_hist_seqr::samples       298362                       (Unspecified)
board.cache_hierarchy.ruby_system.RequestType.LD.hit_latency_hist_seqr::mean     1.000020                       (Unspecified)
board.cache_hierarchy.ruby_system.RequestType.LD.hit_latency_hist_seqr::gmean     1.000014                       (Unspecified)
board.cache_hierarchy.ruby_system.RequestType.LD.hit_latency_hist_seqr::stdev     0.004484                       (Unspecified)
board.cache_hierarchy.ruby_system.RequestType.LD.hit_latency_hist_seqr |           0      0.00%      0.00% |      298356    100.00%    100.00% |           6      0.00%    100.00% |           0      0.00%    100.00% |           0      0.00%    100.00% |           0      0.00%    100.00% |           0      0.00%    100.00% |           0      0.00%    100.00% |           0      0.00%    100.00% |           0      0.00%    100.00% (Unspecified)
board.cache_hierarchy.ruby_system.RequestType.LD.hit_latency_hist_seqr::total       298362                       (Unspecified)
board.cache_hierarchy.ruby_system.RequestType.LD.miss_latency_hist_seqr::bucket_size           32                       (Unspecified)
board.cache_hierarchy.ruby_system.RequestType.LD.miss_latency_hist_seqr::max_bucket          319                       (Unspecified)
board.cache_hierarchy.ruby_system.RequestType.LD.miss_latency_hist_seqr::samples         2294                       (Unspecified)
board.cache_hierarchy.ruby_system.RequestType.LD.miss_latency_hist_seqr::mean    21.924586                       (Unspecified)
board.cache_hierarchy.ruby_system.RequestType.LD.miss_latency_hist_seqr::gmean    20.064221                       (Unspecified)
board.cache_hierarchy.ruby_system.RequestType.LD.miss_latency_hist_seqr::stdev    18.821793                       (Unspecified)
board.cache_hierarchy.ruby_system.RequestType.LD.miss_latency_hist_seqr |        2248     97.99%     97.99% |          20      0.87%     98.87% |           0      0.00%     98.87% |           0      0.00%     98.87% |           7      0.31%     99.17% |           8      0.35%     99.52% |           5      0.22%     99.74% |           6      0.26%    100.00% |           0      0.00%    100.00% |           0      0.00%    100.00% (Unspecified)
board.cache_hierarchy.ruby_system.RequestType.LD.miss_latency_hist_seqr::total         2294                       (Unspecified)
board.cache_hierarchy.ruby_system.RequestType.ST.latency_hist_seqr::bucket_size          128                       (Unspecified)
board.cache_hierarchy.ruby_system.RequestType.ST.latency_hist_seqr::max_bucket         1279                       (Unspecified)
board.cache_hierarchy.ruby_system.RequestType.ST.latency_hist_seqr::samples       171965                       (Unspecified)
board.cache_hierarchy.ruby_system.RequestType.ST.latency_hist_seqr::mean     1.268473                       (Unspecified)
board.cache_hierarchy.ruby_system.RequestType.ST.latency_hist_seqr::gmean     1.009836                       (Unspecified)
board.cache_hierarchy.ruby_system.RequestType.ST.latency_hist_seqr::stdev     8.081585                       (Unspecified)
board.cache_hierarchy.ruby_system.RequestType.ST.latency_hist_seqr |      171695     99.84%     99.84% |         265      0.15%    100.00% |           1      0.00%    100.00% |           0      0.00%    100.00% |           0      0.00%    100.00% |           0      0.00%    100.00% |           1      0.00%    100.00% |           0      0.00%    100.00% |           1      0.00%    100.00% |           2      0.00%    100.00% (Unspecified)
board.cache_hierarchy.ruby_system.RequestType.ST.latency_hist_seqr::total       171965                       (Unspecified)
board.cache_hierarchy.ruby_system.RequestType.ST.hit_latency_hist_seqr::bucket_size           16                       (Unspecified)
board.cache_hierarchy.ruby_system.RequestType.ST.hit_latency_hist_seqr::max_bucket          159                       (Unspecified)
board.cache_hierarchy.ruby_system.RequestType.ST.hit_latency_hist_seqr::samples       171644                       (Unspecified)
board.cache_hierarchy.ruby_system.RequestType.ST.hit_latency_hist_seqr::mean     1.002581                       (Unspecified)
board.cache_hierarchy.ruby_system.RequestType.ST.hit_latency_hist_seqr::gmean     1.000926                       (Unspecified)
board.cache_hierarchy.ruby_system.RequestType.ST.hit_latency_hist_seqr::stdev     0.368058                       (Unspecified)
board.cache_hierarchy.ruby_system.RequestType.ST.hit_latency_hist_seqr |      171641    100.00%    100.00% |           0      0.00%    100.00% |           1      0.00%    100.00% |           1      0.00%    100.00% |           0      0.00%    100.00% |           0      0.00%    100.00% |           0      0.00%    100.00% |           0      0.00%    100.00% |           1      0.00%    100.00% |           0      0.00%    100.00% (Unspecified)
board.cache_hierarchy.ruby_system.RequestType.ST.hit_latency_hist_seqr::total       171644                       (Unspecified)
board.cache_hierarchy.ruby_system.RequestType.ST.miss_latency_hist_seqr::bucket_size          128                       (Unspecified)
board.cache_hierarchy.ruby_system.RequestType.ST.miss_latency_hist_seqr::max_bucket         1279                       (Unspecified)
board.cache_hierarchy.ruby_system.RequestType.ST.miss_latency_hist_seqr::samples          321                       (Unspecified)
board.cache_hierarchy.ruby_system.RequestType.ST.miss_latency_hist_seqr::mean   143.445483                       (Unspecified)
board.cache_hierarchy.ruby_system.RequestType.ST.miss_latency_hist_seqr::gmean   115.378684                       (Unspecified)
board.cache_hierarchy.ruby_system.RequestType.ST.miss_latency_hist_seqr::stdev   121.283981                       (Unspecified)
board.cache_hierarchy.ruby_system.RequestType.ST.miss_latency_hist_seqr |          52     16.20%     16.20% |         264     82.24%     98.44% |           1      0.31%     98.75% |           0      0.00%     98.75% |           0      0.00%     98.75% |           0      0.00%     98.75% |           1      0.31%     99.07% |           0      0.00%     99.07% |           1      0.31%     99.38% |           2      0.62%    100.00% (Unspecified)
board.cache_hierarchy.ruby_system.RequestType.ST.miss_latency_hist_seqr::total          321                       (Unspecified)
board.cache_hierarchy.ruby_system.RequestType.IFETCH.latency_hist_seqr::bucket_size          128                       (Unspecified)
board.cache_hierarchy.ruby_system.RequestType.IFETCH.latency_hist_seqr::max_bucket         1279                       (Unspecified)
board.cache_hierarchy.ruby_system.RequestType.IFETCH.latency_hist_seqr::samples       533648                       (Unspecified)
board.cache_hierarchy.ruby_system.RequestType.IFETCH.latency_hist_seqr::mean     1.133290                       (Unspecified)
board.cache_hierarchy.ruby_system.RequestType.IFETCH.latency_hist_seqr::gmean     1.007210                       (Unspecified)
board.cache_hierarchy.ruby_system.RequestType.IFETCH.latency_hist_seqr::stdev     4.791607                       (Unspecified)
board.cache_hierarchy.ruby_system.RequestType.IFETCH.latency_hist_seqr |      533275     99.93%     99.93% |         370      0.07%    100.00% |           0      0.00%    100.00% |           0      0.00%    100.00% |           0      0.00%    100.00% |           0      0.00%    100.00% |           0      0.00%    100.00% |           1      0.00%    100.00% |           2      0.00%    100.00% |           0      0.00%    100.00% (Unspecified)
board.cache_hierarchy.ruby_system.RequestType.IFETCH.latency_hist_seqr::total       533648                       (Unspecified)
board.cache_hierarchy.ruby_system.RequestType.IFETCH.hit_latency_hist_seqr::bucket_size            1                       (Unspecified)
board.cache_hierarchy.ruby_system.RequestType.IFETCH.hit_latency_hist_seqr::max_bucket            9                       (Unspecified)
board.cache_hierarchy.ruby_system.RequestType.IFETCH.hit_latency_hist_seqr::samples       532601                       (Unspecified)
board.cache_hierarchy.ruby_system.RequestType.IFETCH.hit_latency_hist_seqr::mean            1                       (Unspecified)
board.cache_hierarchy.ruby_system.RequestType.IFETCH.hit_latency_hist_seqr::gmean            1                       (Unspecified)
board.cache_hierarchy.ruby_system.RequestType.IFETCH.hit_latency_hist_seqr |           0      0.00%      0.00% |      532601    100.00%    100.00% |           0      0.00%    100.00% |           0      0.00%    100.00% |           0      0.00%    100.00% |           0      0.00%    100.00% |           0      0.00%    100.00% |           0      0.00%    100.00% |           0      0.00%    100.00% |           0      0.00%    100.00% (Unspecified)
board.cache_hierarchy.ruby_system.RequestType.IFETCH.hit_latency_hist_seqr::total       532601                       (Unspecified)
board.cache_hierarchy.ruby_system.RequestType.IFETCH.miss_latency_hist_seqr::bucket_size          128                       (Unspecified)
board.cache_hierarchy.ruby_system.RequestType.IFETCH.miss_latency_hist_seqr::max_bucket         1279                       (Unspecified)
board.cache_hierarchy.ruby_system.RequestType.IFETCH.miss_latency_hist_seqr::samples         1047                       (Unspecified)
board.cache_hierarchy.ruby_system.RequestType.IFETCH.miss_latency_hist_seqr::mean    68.936963                       (Unspecified)
board.cache_hierarchy.ruby_system.RequestType.IFETCH.miss_latency_hist_seqr::gmean    38.920598                       (Unspecified)
board.cache_hierarchy.ruby_system.RequestType.IFETCH.miss_latency_hist_seqr::stdev    84.277323                       (Unspecified)
board.cache_hierarchy.ruby_system.RequestType.IFETCH.miss_latency_hist_seqr |         674     64.37%     64.37% |         370     35.34%     99.71% |           0      0.00%     99.71% |           0      0.00%     99.71% |           0      0.00%     99.71% |           0      0.00%     99.71% |           0      0.00%     99.71% |           1      0.10%     99.81% |           2      0.19%    100.00% |           0      0.00%    100.00% (Unspecified)
board.cache_hierarchy.ruby_system.RequestType.IFETCH.miss_latency_hist_seqr::total         1047                       (Unspecified)
board.cache_hierarchy.ruby_system.RequestType.RMW_Read.latency_hist_seqr::bucket_size           32                       (Unspecified)
board.cache_hierarchy.ruby_system.RequestType.RMW_Read.latency_hist_seqr::max_bucket          319                       (Unspecified)
board.cache_hierarchy.ruby_system.RequestType.RMW_Read.latency_hist_seqr::samples        32887                       (Unspecified)
board.cache_hierarchy.ruby_system.RequestType.RMW_Read.latency_hist_seqr::mean     1.026941                       (Unspecified)
board.cache_hierarchy.ruby_system.RequestType.RMW_Read.latency_hist_seqr::gmean     1.001261                       (Unspecified)
board.cache_hierarchy.ruby_system.RequestType.RMW_Read.latency_hist_seqr::stdev     1.995541                       (Unspecified)
board.cache_hierarchy.ruby_system.RequestType.RMW_Read.latency_hist_seqr |       32880     99.98%     99.98% |           2      0.01%     99.98% |           0      0.00%     99.98% |           0      0.00%     99.98% |           3      0.01%     99.99% |           2      0.01%    100.00% |           0      0.00%    100.00% |           0      0.00%    100.00% |           0      0.00%    100.00% |           0      0.00%    100.00% (Unspecified)
board.cache_hierarchy.ruby_system.RequestType.RMW_Read.latency_hist_seqr::total        32887                       (Unspecified)
board.cache_hierarchy.ruby_system.RequestType.RMW_Read.hit_latency_hist_seqr::bucket_size            1                       (Unspecified)
board.cache_hierarchy.ruby_system.RequestType.RMW_Read.hit_latency_hist_seqr::max_bucket            9                       (Unspecified)
board.cache_hierarchy.ruby_system.RequestType.RMW_Read.hit_latency_hist_seqr::samples        32879                       (Unspecified)
board.cache_hierarchy.ruby_system.RequestType.RMW_Read.hit_latency_hist_seqr::mean     1.000274                       (Unspecified)
board.cache_hierarchy.ruby_system.RequestType.RMW_Read.hit_latency_hist_seqr::gmean     1.000190                       (Unspecified)
board.cache_hierarchy.ruby_system.RequestType.RMW_Read.hit_latency_hist_seqr::stdev     0.016543                       (Unspecified)
board.cache_hierarchy.ruby_system.RequestType.RMW_Read.hit_latency_hist_seqr |           0      0.00%      0.00% |       32870     99.97%     99.97% |           9      0.03%    100.00% |           0      0.00%    100.00% |           0      0.00%    100.00% |           0      0.00%    100.00% |           0      0.00%    100.00% |           0      0.00%    100.00% |           0      0.00%    100.00% |           0      0.00%    100.00% (Unspecified)
board.cache_hierarchy.ruby_system.RequestType.RMW_Read.hit_latency_hist_seqr::total        32879                       (Unspecified)
board.cache_hierarchy.ruby_system.RequestType.RMW_Read.miss_latency_hist_seqr::bucket_size           32                       (Unspecified)
board.cache_hierarchy.ruby_system.RequestType.RMW_Read.miss_latency_hist_seqr::max_bucket          319                       (Unspecified)
board.cache_hierarchy.ruby_system.RequestType.RMW_Read.miss_latency_hist_seqr::samples            8                       (Unspecified)
board.cache_hierarchy.ruby_system.RequestType.RMW_Read.miss_latency_hist_seqr::mean   110.625000                       (Unspecified)
board.cache_hierarchy.ruby_system.RequestType.RMW_Read.miss_latency_hist_seqr::gmean    81.634064                       (Unspecified)
board.cache_hierarchy.ruby_system.RequestType.RMW_Read.miss_latency_hist_seqr::stdev    70.540642                       (Unspecified)
board.cache_hierarchy.ruby_system.RequestType.RMW_Read.miss_latency_hist_seqr |           1     12.50%     12.50% |           2     25.00%     37.50% |           0      0.00%     37.50% |           0      0.00%     37.50% |           3     37.50%     75.00% |           2     25.00%    100.00% |           0      0.00%    100.00% |           0      0.00%    100.00% |           0      0.00%    100.00% |           0      0.00%    100.00% (Unspecified)
board.cache_hierarchy.ruby_system.RequestType.RMW_Read.miss_latency_hist_seqr::total            8                       (Unspecified)
board.cache_hierarchy.ruby_system.RequestType.Locked_RMW_Read.latency_hist_seqr::bucket_size            4                       (Unspecified)
board.cache_hierarchy.ruby_system.RequestType.Locked_RMW_Read.latency_hist_seqr::max_bucket           39                       (Unspecified)
board.cache_hierarchy.ruby_system.RequestType.Locked_RMW_Read.latency_hist_seqr::samples        32962                       (Unspecified)
board.cache_hierarchy.ruby_system.RequestType.Locked_RMW_Read.latency_hist_seqr::mean     1.032644                       (Unspecified)
board.cache_hierarchy.ruby_system.RequestType.Locked_RMW_Read.latency_hist_seqr::gmean     1.004420                       (Unspecified)
board.cache_hierarchy.ruby_system.RequestType.Locked_RMW_Read.latency_hist_seqr::stdev     0.900379                       (Unspecified)
board.cache_hierarchy.ruby_system.RequestType.Locked_RMW_Read.latency_hist_seqr |       32916     99.86%     99.86% |           0      0.00%     99.86% |           0      0.00%     99.86% |           5      0.02%     99.88% |           2      0.01%     99.88% |           8      0.02%     99.91% |          12      0.04%     99.94% |           9      0.03%     99.97% |          10      0.03%    100.00% |           0      0.00%    100.00% (Unspecified)
board.cache_hierarchy.ruby_system.RequestType.Locked_RMW_Read.latency_hist_seqr::total        32962                       (Unspecified)
board.cache_hierarchy.ruby_system.RequestType.Locked_RMW_Read.hit_latency_hist_seqr::bucket_size            1                       (Unspecified)
board.cache_hierarchy.ruby_system.RequestType.Locked_RMW_Read.hit_latency_hist_seqr::max_bucket            9                       (Unspecified)
board.cache_hierarchy.ruby_system.RequestType.Locked_RMW_Read.hit_latency_hist_seqr::samples        32916                       (Unspecified)
board.cache_hierarchy.ruby_system.RequestType.Locked_RMW_Read.hit_latency_hist_seqr::mean            1                       (Unspecified)
board.cache_hierarchy.ruby_system.RequestType.Locked_RMW_Read.hit_latency_hist_seqr::gmean            1                       (Unspecified)
board.cache_hierarchy.ruby_system.RequestType.Locked_RMW_Read.hit_latency_hist_seqr |           0      0.00%      0.00% |       32916    100.00%    100.00% |           0      0.00%    100.00% |           0      0.00%    100.00% |           0      0.00%    100.00% |           0      0.00%    100.00% |           0      0.00%    100.00% |           0      0.00%    100.00% |           0      0.00%    100.00% |           0      0.00%    100.00% (Unspecified)
board.cache_hierarchy.ruby_system.RequestType.Locked_RMW_Read.hit_latency_hist_seqr::total        32916                       (Unspecified)
board.cache_hierarchy.ruby_system.RequestType.Locked_RMW_Read.miss_latency_hist_seqr::bucket_size            4                       (Unspecified)
board.cache_hierarchy.ruby_system.RequestType.Locked_RMW_Read.miss_latency_hist_seqr::max_bucket           39                       (Unspecified)
board.cache_hierarchy.ruby_system.RequestType.Locked_RMW_Read.miss_latency_hist_seqr::samples           46                       (Unspecified)
board.cache_hierarchy.ruby_system.RequestType.Locked_RMW_Read.miss_latency_hist_seqr::mean    24.391304                       (Unspecified)
board.cache_hierarchy.ruby_system.RequestType.Locked_RMW_Read.miss_latency_hist_seqr::gmean    23.584562                       (Unspecified)
board.cache_hierarchy.ruby_system.RequestType.Locked_RMW_Read.miss_latency_hist_seqr::stdev     5.938493                       (Unspecified)
board.cache_hierarchy.ruby_system.RequestType.Locked_RMW_Read.miss_latency_hist_seqr |           0      0.00%      0.00% |           0      0.00%      0.00% |           0      0.00%      0.00% |           5     10.87%     10.87% |           2      4.35%     15.22% |           8     17.39%     32.61% |          12     26.09%     58.70% |           9     19.57%     78.26% |          10     21.74%    100.00% |           0      0.00%    100.00% (Unspecified)
board.cache_hierarchy.ruby_system.RequestType.Locked_RMW_Read.miss_latency_hist_seqr::total           46                       (Unspecified)
board.cache_hierarchy.ruby_system.RequestType.Locked_RMW_Write.latency_hist_seqr::bucket_size            1                       (Unspecified)
board.cache_hierarchy.ruby_system.RequestType.Locked_RMW_Write.latency_hist_seqr::max_bucket            9                       (Unspecified)
board.cache_hierarchy.ruby_system.RequestType.Locked_RMW_Write.latency_hist_seqr::samples        32962                       (Unspecified)
board.cache_hierarchy.ruby_system.RequestType.Locked_RMW_Write.latency_hist_seqr::mean            1                       (Unspecified)
board.cache_hierarchy.ruby_system.RequestType.Locked_RMW_Write.latency_hist_seqr::gmean            1                       (Unspecified)
board.cache_hierarchy.ruby_system.RequestType.Locked_RMW_Write.latency_hist_seqr |           0      0.00%      0.00% |       32962    100.00%    100.00% |           0      0.00%    100.00% |           0      0.00%    100.00% |           0      0.00%    100.00% |           0      0.00%    100.00% |           0      0.00%    100.00% |           0      0.00%    100.00% |           0      0.00%    100.00% |           0      0.00%    100.00% (Unspecified)
board.cache_hierarchy.ruby_system.RequestType.Locked_RMW_Write.latency_hist_seqr::total        32962                       (Unspecified)
board.cache_hierarchy.ruby_system.RequestType.Locked_RMW_Write.hit_latency_hist_seqr::bucket_size            1                       (Unspecified)
board.cache_hierarchy.ruby_system.RequestType.Locked_RMW_Write.hit_latency_hist_seqr::max_bucket            9                       (Unspecified)
board.cache_hierarchy.ruby_system.RequestType.Locked_RMW_Write.hit_latency_hist_seqr::samples        32962                       (Unspecified)
board.cache_hierarchy.ruby_system.RequestType.Locked_RMW_Write.hit_latency_hist_seqr::mean            1                       (Unspecified)
board.cache_hierarchy.ruby_system.RequestType.Locked_RMW_Write.hit_latency_hist_seqr::gmean            1                       (Unspecified)
board.cache_hierarchy.ruby_system.RequestType.Locked_RMW_Write.hit_latency_hist_seqr |           0      0.00%      0.00% |       32962    100.00%    100.00% |           0      0.00%    100.00% |           0      0.00%    100.00% |           0      0.00%    100.00% |           0      0.00%    100.00% |           0      0.00%    100.00% |           0      0.00%    100.00% |           0      0.00%    100.00% |           0      0.00%    100.00% (Unspecified)
board.cache_hierarchy.ruby_system.RequestType.Locked_RMW_Write.hit_latency_hist_seqr::total        32962                       (Unspecified)
board.cache_hierarchy.ruby_system.directory_controllers.power_state.pwrStateResidencyTicks::UNDEFINED    444910311                       # Cumulative time (in ticks) in various power states (Tick)
board.cache_hierarchy.ruby_system.directory_controllers.requestToDir.m_msg_count          668                       # Number of messages passed the buffer (Count)
board.cache_hierarchy.ruby_system.directory_controllers.requestToDir.m_buf_msgs     0.000984                       # Average number of messages in buffer ((Count/Tick))
board.cache_hierarchy.ruby_system.directory_controllers.requestToMemory.m_msg_count          668                       # Number of messages passed the buffer (Count)
board.cache_hierarchy.ruby_system.directory_controllers.requestToMemory.m_buf_msgs     0.000991                       # Average number of messages in buffer ((Count/Tick))
board.cache_hierarchy.ruby_system.directory_controllers.requestToMemory.m_stall_time         1665                       # Total number of ticks messages were stalled in this buffer (Tick)
board.cache_hierarchy.ruby_system.directory_controllers.requestToMemory.m_avg_stall_time     2.492515                       # Average stall ticks per message ((Tick/Count))
board.cache_hierarchy.ruby_system.directory_controllers.responseFromDir.m_msg_count          668                       # Number of messages passed the buffer (Count)
board.cache_hierarchy.ruby_system.directory_controllers.responseFromDir.m_buf_msgs     0.000984                       # Average number of messages in buffer ((Count/Tick))
board.cache_hierarchy.ruby_system.directory_controllers.responseFromMemory.m_msg_count          668                       # Number of messages passed the buffer (Count)
board.cache_hierarchy.ruby_system.directory_controllers.responseFromMemory.m_buf_msgs     0.001461                       # Average number of messages in buffer ((Count/Tick))
board.cache_hierarchy.ruby_system.l1_controllers0.fullyBusyCycles           36                       # cycles for which number of transistions == max transitions (Unspecified)
board.cache_hierarchy.ruby_system.l1_controllers0.delayHistogram::samples         1049                       # delay_histogram (Unspecified)
board.cache_hierarchy.ruby_system.l1_controllers0.delayHistogram::mean     0.074357                       # delay_histogram (Unspecified)
board.cache_hierarchy.ruby_system.l1_controllers0.delayHistogram::stdev     0.703183                       # delay_histogram (Unspecified)
board.cache_hierarchy.ruby_system.l1_controllers0.delayHistogram::0         1034     98.57%     98.57% # delay_histogram (Unspecified)
board.cache_hierarchy.ruby_system.l1_controllers0.delayHistogram::2            6      0.57%     99.14% # delay_histogram (Unspecified)
board.cache_hierarchy.ruby_system.l1_controllers0.delayHistogram::4            1      0.10%     99.24% # delay_histogram (Unspecified)
board.cache_hierarchy.ruby_system.l1_controllers0.delayHistogram::6            1      0.10%     99.33% # delay_histogram (Unspecified)
board.cache_hierarchy.ruby_system.l1_controllers0.delayHistogram::8            7      0.67%    100.00% # delay_histogram (Unspecified)
board.cache_hierarchy.ruby_system.l1_controllers0.delayHistogram::total         1049                       # delay_histogram (Unspecified)
board.cache_hierarchy.ruby_system.l1_controllers0.L1Dcache.m_demand_hits         9298                       # Number of cache demand hits (Unspecified)
board.cache_hierarchy.ruby_system.l1_controllers0.L1Dcache.m_demand_misses          180                       # Number of cache demand misses (Unspecified)
board.cache_hierarchy.ruby_system.l1_controllers0.L1Dcache.m_demand_accesses         9478                       # Number of cache demand accesses (Unspecified)
board.cache_hierarchy.ruby_system.l1_controllers0.L1Icache.m_demand_hits         5700                       # Number of cache demand hits (Unspecified)
board.cache_hierarchy.ruby_system.l1_controllers0.L1Icache.m_demand_misses          301                       # Number of cache demand misses (Unspecified)
board.cache_hierarchy.ruby_system.l1_controllers0.L1Icache.m_demand_accesses         6001                       # Number of cache demand accesses (Unspecified)
board.cache_hierarchy.ruby_system.l1_controllers0.mandatoryQueue.m_msg_count        15479                       # Number of messages passed the buffer (Count)
board.cache_hierarchy.ruby_system.l1_controllers0.mandatoryQueue.m_buf_msgs     0.022801                       # Average number of messages in buffer ((Count/Tick))
board.cache_hierarchy.ruby_system.l1_controllers0.mandatoryQueue.m_stall_time         1665                       # Total number of ticks messages were stalled in this buffer (Tick)
board.cache_hierarchy.ruby_system.l1_controllers0.mandatoryQueue.m_avg_stall_time     0.107565                       # Average stall ticks per message ((Tick/Count))
board.cache_hierarchy.ruby_system.l1_controllers0.power_state.pwrStateResidencyTicks::UNDEFINED    444910311                       # Cumulative time (in ticks) in various power states (Tick)
board.cache_hierarchy.ruby_system.l1_controllers0.prefetcher.RubyPrefetcher.numMissObserved            0                       # Number of misses observed (Unspecified)
board.cache_hierarchy.ruby_system.l1_controllers0.prefetcher.RubyPrefetcher.numAllocatedStreams            0                       # Number of streams allocated for prefetching (Unspecified)
board.cache_hierarchy.ruby_system.l1_controllers0.prefetcher.RubyPrefetcher.numPrefetchRequested            0                       # Number of prefetch requests made (Unspecified)
board.cache_hierarchy.ruby_system.l1_controllers0.prefetcher.RubyPrefetcher.numHits            0                       # Number of prefetched blocks accessed (for the first time) (Unspecified)
board.cache_hierarchy.ruby_system.l1_controllers0.prefetcher.RubyPrefetcher.numPartialHits            0                       # Number of misses observed for a block being prefetched (Unspecified)
board.cache_hierarchy.ruby_system.l1_controllers0.prefetcher.RubyPrefetcher.numPagesCrossed            0                       # Number of prefetches across pages (Unspecified)
board.cache_hierarchy.ruby_system.l1_controllers0.prefetcher.RubyPrefetcher.numMissedPrefetchedBlocks            0                       # Number of misses for blocks that were prefetched, yet missed (Unspecified)
board.cache_hierarchy.ruby_system.l1_controllers0.requestFromL1Cache.m_msg_count          634                       # Number of messages passed the buffer (Count)
board.cache_hierarchy.ruby_system.l1_controllers0.requestFromL1Cache.m_buf_msgs     0.001867                       # Average number of messages in buffer ((Count/Tick))
board.cache_hierarchy.ruby_system.l1_controllers0.requestToL1Cache.m_msg_count          411                       # Number of messages passed the buffer (Count)
board.cache_hierarchy.ruby_system.l1_controllers0.requestToL1Cache.m_buf_msgs     0.000605                       # Average number of messages in buffer ((Count/Tick))
board.cache_hierarchy.ruby_system.l1_controllers0.responseFromL1Cache.m_msg_count          787                       # Number of messages passed the buffer (Count)
board.cache_hierarchy.ruby_system.l1_controllers0.responseFromL1Cache.m_buf_msgs     0.002318                       # Average number of messages in buffer ((Count/Tick))
board.cache_hierarchy.ruby_system.l1_controllers0.responseToL1Cache.m_msg_count          638                       # Number of messages passed the buffer (Count)
board.cache_hierarchy.ruby_system.l1_controllers0.responseToL1Cache.m_buf_msgs     0.000939                       # Average number of messages in buffer ((Count/Tick))
board.cache_hierarchy.ruby_system.l1_controllers0.sequencer.power_state.pwrStateResidencyTicks::UNDEFINED    444910311                       # Cumulative time (in ticks) in various power states (Tick)
board.cache_hierarchy.ruby_system.l1_controllers0.unblockFromL1Cache.m_msg_count          175                       # Number of messages passed the buffer (Count)
board.cache_hierarchy.ruby_system.l1_controllers0.unblockFromL1Cache.m_buf_msgs     0.000258                       # Average number of messages in buffer ((Count/Tick))
board.cache_hierarchy.ruby_system.l1_controllers1.fullyBusyCycles            2                       # cycles for which number of transistions == max transitions (Unspecified)
board.cache_hierarchy.ruby_system.l1_controllers1.delayHistogram::samples          951                       # delay_histogram (Unspecified)
board.cache_hierarchy.ruby_system.l1_controllers1.delayHistogram::mean     0.220820                       # delay_histogram (Unspecified)
board.cache_hierarchy.ruby_system.l1_controllers1.delayHistogram::stdev     1.467410                       # delay_histogram (Unspecified)
board.cache_hierarchy.ruby_system.l1_controllers1.delayHistogram::0-1          922     96.95%     96.95% # delay_histogram (Unspecified)
board.cache_hierarchy.ruby_system.l1_controllers1.delayHistogram::2-3            5      0.53%     97.48% # delay_histogram (Unspecified)
board.cache_hierarchy.ruby_system.l1_controllers1.delayHistogram::4-5            6      0.63%     98.11% # delay_histogram (Unspecified)
board.cache_hierarchy.ruby_system.l1_controllers1.delayHistogram::6-7            4      0.42%     98.53% # delay_histogram (Unspecified)
board.cache_hierarchy.ruby_system.l1_controllers1.delayHistogram::8-9            8      0.84%     99.37% # delay_histogram (Unspecified)
board.cache_hierarchy.ruby_system.l1_controllers1.delayHistogram::12-13            2      0.21%     99.58% # delay_histogram (Unspecified)
board.cache_hierarchy.ruby_system.l1_controllers1.delayHistogram::14-15            1      0.11%     99.68% # delay_histogram (Unspecified)
board.cache_hierarchy.ruby_system.l1_controllers1.delayHistogram::16-17            2      0.21%     99.89% # delay_histogram (Unspecified)
board.cache_hierarchy.ruby_system.l1_controllers1.delayHistogram::18-19            1      0.11%    100.00% # delay_histogram (Unspecified)
board.cache_hierarchy.ruby_system.l1_controllers1.delayHistogram::total          951                       # delay_histogram (Unspecified)
board.cache_hierarchy.ruby_system.l1_controllers1.L1Dcache.m_demand_hits       139967                       # Number of cache demand hits (Unspecified)
board.cache_hierarchy.ruby_system.l1_controllers1.L1Dcache.m_demand_misses          628                       # Number of cache demand misses (Unspecified)
board.cache_hierarchy.ruby_system.l1_controllers1.L1Dcache.m_demand_accesses       140595                       # Number of cache demand accesses (Unspecified)
board.cache_hierarchy.ruby_system.l1_controllers1.L1Icache.m_demand_hits       131660                       # Number of cache demand hits (Unspecified)
board.cache_hierarchy.ruby_system.l1_controllers1.L1Icache.m_demand_misses          190                       # Number of cache demand misses (Unspecified)
board.cache_hierarchy.ruby_system.l1_controllers1.L1Icache.m_demand_accesses       131850                       # Number of cache demand accesses (Unspecified)
board.cache_hierarchy.ruby_system.l1_controllers1.mandatoryQueue.m_msg_count       272445                       # Number of messages passed the buffer (Count)
board.cache_hierarchy.ruby_system.l1_controllers1.mandatoryQueue.m_buf_msgs     0.401190                       # Average number of messages in buffer ((Count/Tick))
board.cache_hierarchy.ruby_system.l1_controllers1.power_state.pwrStateResidencyTicks::UNDEFINED    444910311                       # Cumulative time (in ticks) in various power states (Tick)
board.cache_hierarchy.ruby_system.l1_controllers1.prefetcher.RubyPrefetcher.numMissObserved            0                       # Number of misses observed (Unspecified)
board.cache_hierarchy.ruby_system.l1_controllers1.prefetcher.RubyPrefetcher.numAllocatedStreams            0                       # Number of streams allocated for prefetching (Unspecified)
board.cache_hierarchy.ruby_system.l1_controllers1.prefetcher.RubyPrefetcher.numPrefetchRequested            0                       # Number of prefetch requests made (Unspecified)
board.cache_hierarchy.ruby_system.l1_controllers1.prefetcher.RubyPrefetcher.numHits            0                       # Number of prefetched blocks accessed (for the first time) (Unspecified)
board.cache_hierarchy.ruby_system.l1_controllers1.prefetcher.RubyPrefetcher.numPartialHits            0                       # Number of misses observed for a block being prefetched (Unspecified)
board.cache_hierarchy.ruby_system.l1_controllers1.prefetcher.RubyPrefetcher.numPagesCrossed            0                       # Number of prefetches across pages (Unspecified)
board.cache_hierarchy.ruby_system.l1_controllers1.prefetcher.RubyPrefetcher.numMissedPrefetchedBlocks            0                       # Number of misses for blocks that were prefetched, yet missed (Unspecified)
board.cache_hierarchy.ruby_system.l1_controllers1.requestFromL1Cache.m_msg_count          913                       # Number of messages passed the buffer (Count)
board.cache_hierarchy.ruby_system.l1_controllers1.requestFromL1Cache.m_buf_msgs     0.002689                       # Average number of messages in buffer ((Count/Tick))
board.cache_hierarchy.ruby_system.l1_controllers1.requestToL1Cache.m_msg_count           22                       # Number of messages passed the buffer (Count)
board.cache_hierarchy.ruby_system.l1_controllers1.requestToL1Cache.m_buf_msgs     0.000032                       # Average number of messages in buffer ((Count/Tick))
board.cache_hierarchy.ruby_system.l1_controllers1.responseFromL1Cache.m_msg_count           33                       # Number of messages passed the buffer (Count)
board.cache_hierarchy.ruby_system.l1_controllers1.responseFromL1Cache.m_buf_msgs     0.000097                       # Average number of messages in buffer ((Count/Tick))
board.cache_hierarchy.ruby_system.l1_controllers1.responseToL1Cache.m_msg_count          929                       # Number of messages passed the buffer (Count)
board.cache_hierarchy.ruby_system.l1_controllers1.responseToL1Cache.m_buf_msgs     0.001368                       # Average number of messages in buffer ((Count/Tick))
board.cache_hierarchy.ruby_system.l1_controllers1.sequencer.power_state.pwrStateResidencyTicks::UNDEFINED    444910311                       # Cumulative time (in ticks) in various power states (Tick)
board.cache_hierarchy.ruby_system.l1_controllers1.unblockFromL1Cache.m_msg_count          626                       # Number of messages passed the buffer (Count)
board.cache_hierarchy.ruby_system.l1_controllers1.unblockFromL1Cache.m_buf_msgs     0.000922                       # Average number of messages in buffer ((Count/Tick))
board.cache_hierarchy.ruby_system.l1_controllers2.fullyBusyCycles            2                       # cycles for which number of transistions == max transitions (Unspecified)
board.cache_hierarchy.ruby_system.l1_controllers2.delayHistogram::samples          970                       # delay_histogram (Unspecified)
board.cache_hierarchy.ruby_system.l1_controllers2.delayHistogram::mean     0.327835                       # delay_histogram (Unspecified)
board.cache_hierarchy.ruby_system.l1_controllers2.delayHistogram::stdev     1.686390                       # delay_histogram (Unspecified)
board.cache_hierarchy.ruby_system.l1_controllers2.delayHistogram::0-3          930     95.88%     95.88% # delay_histogram (Unspecified)
board.cache_hierarchy.ruby_system.l1_controllers2.delayHistogram::4-7           22      2.27%     98.14% # delay_histogram (Unspecified)
board.cache_hierarchy.ruby_system.l1_controllers2.delayHistogram::8-11           12      1.24%     99.38% # delay_histogram (Unspecified)
board.cache_hierarchy.ruby_system.l1_controllers2.delayHistogram::12-15            3      0.31%     99.69% # delay_histogram (Unspecified)
board.cache_hierarchy.ruby_system.l1_controllers2.delayHistogram::16-19            2      0.21%     99.90% # delay_histogram (Unspecified)
board.cache_hierarchy.ruby_system.l1_controllers2.delayHistogram::20-23            1      0.10%    100.00% # delay_histogram (Unspecified)
board.cache_hierarchy.ruby_system.l1_controllers2.delayHistogram::total          970                       # delay_histogram (Unspecified)
board.cache_hierarchy.ruby_system.l1_controllers2.L1Dcache.m_demand_hits       139934                       # Number of cache demand hits (Unspecified)
board.cache_hierarchy.ruby_system.l1_controllers2.L1Dcache.m_demand_misses          628                       # Number of cache demand misses (Unspecified)
board.cache_hierarchy.ruby_system.l1_controllers2.L1Dcache.m_demand_accesses       140562                       # Number of cache demand accesses (Unspecified)
board.cache_hierarchy.ruby_system.l1_controllers2.L1Icache.m_demand_hits       131739                       # Number of cache demand hits (Unspecified)
board.cache_hierarchy.ruby_system.l1_controllers2.L1Icache.m_demand_misses          195                       # Number of cache demand misses (Unspecified)
board.cache_hierarchy.ruby_system.l1_controllers2.L1Icache.m_demand_accesses       131934                       # Number of cache demand accesses (Unspecified)
board.cache_hierarchy.ruby_system.l1_controllers2.mandatoryQueue.m_msg_count       272496                       # Number of messages passed the buffer (Count)
board.cache_hierarchy.ruby_system.l1_controllers2.mandatoryQueue.m_buf_msgs     0.401267                       # Average number of messages in buffer ((Count/Tick))
board.cache_hierarchy.ruby_system.l1_controllers2.mandatoryQueue.m_stall_time          333                       # Total number of ticks messages were stalled in this buffer (Tick)
board.cache_hierarchy.ruby_system.l1_controllers2.mandatoryQueue.m_avg_stall_time     0.001222                       # Average stall ticks per message ((Tick/Count))
board.cache_hierarchy.ruby_system.l1_controllers2.power_state.pwrStateResidencyTicks::UNDEFINED    444910311                       # Cumulative time (in ticks) in various power states (Tick)
board.cache_hierarchy.ruby_system.l1_controllers2.prefetcher.RubyPrefetcher.numMissObserved            0                       # Number of misses observed (Unspecified)
board.cache_hierarchy.ruby_system.l1_controllers2.prefetcher.RubyPrefetcher.numAllocatedStreams            0                       # Number of streams allocated for prefetching (Unspecified)
board.cache_hierarchy.ruby_system.l1_controllers2.prefetcher.RubyPrefetcher.numPrefetchRequested            0                       # Number of prefetch requests made (Unspecified)
[...]
board.processor.cores4.core.commitStats0.committedControl::IsCall         8270                       # Class of control type instructions committed (Count)
board.processor.cores4.core.commitStats0.committedControl::IsReturn         8269                       # Class of control type instructions committed (Count)
board.processor.cores4.core.decode.idleCycles        68686                       # Number of cycles decode is idle (Cycle)
board.processor.cores4.core.decode.blockedCycles       364668                       # Number of cycles decode is blocked (Cycle)
board.processor.cores4.core.decode.runCycles       147210                       # Number of cycles decode is running (Cycle)
board.processor.cores4.core.decode.unblockCycles        34400                       # Number of cycles decode is unblocking (Cycle)
board.processor.cores4.core.decode.squashCycles         8332                       # Number of cycles decode is squashing (Cycle)
board.processor.cores4.core.decode.branchResolved        41398                       # Number of times decode resolved a branch (Count)
board.processor.cores4.core.decode.branchMispred          114                       # Number of times decode detected a branch misprediction (Count)
board.processor.cores4.core.decode.decodedInsts      1351797                       # Number of instructions handled by decode (Count)
board.processor.cores4.core.decode.squashedInsts          575                       # Number of squashed instructions handled by decode (Count)
board.processor.cores4.core.executeStats0.numInsts       874527                       # Number of executed instructions (Count)
board.processor.cores4.core.executeStats0.numNop            0                       # Number of nop insts executed (Count)
board.processor.cores4.core.executeStats0.numBranches        49829                       # Number of branches executed (Count)
board.processor.cores4.core.executeStats0.numLoadInsts       221991                       # Number of load instructions executed (Count)
board.processor.cores4.core.executeStats0.numStoreInsts        66102                       # Number of stores executed (Count)
board.processor.cores4.core.executeStats0.instRate     1.402771                       # Inst execution rate ((Count/Cycle))
board.processor.cores4.core.executeStats0.numCCRegReads       133229                       # Number of times the CC registers were read (Count)
board.processor.cores4.core.executeStats0.numCCRegWrites       214400                       # Number of times the CC registers were written (Count)
board.processor.cores4.core.executeStats0.numFpRegReads           27                       # Number of times the floating registers were read (Count)
board.processor.cores4.core.executeStats0.numFpRegWrites           14                       # Number of times the floating registers were written (Count)
board.processor.cores4.core.executeStats0.numIntRegReads       964489                       # Number of times the integer registers were read (Count)
board.processor.cores4.core.executeStats0.numIntRegWrites       708776                       # Number of times the integer registers were written (Count)
board.processor.cores4.core.executeStats0.numMemRefs       288093                       # Number of memory refs (Count)
board.processor.cores4.core.executeStats0.numMiscRegReads       395896                       # Number of times the Misc registers were read (Count)
board.processor.cores4.core.executeStats0.numMiscRegWrites            1                       # Number of times the Misc registers were written (Count)
board.processor.cores4.core.executeStats0.numVecAluAccesses            0                       # Number of vector alu accesses (Count)
board.processor.cores4.core.executeStats0.numDiscardedOps            0                       # Number of ops (including micro ops) which were discarded before commit (Count)
board.processor.cores4.core.fetch.predictedBranches        74297                       # Number of branches that fetch has predicted taken (Count)
board.processor.cores4.core.fetch.cycles       480407                       # Number of cycles fetch has run and was not squashing or blocked (Cycle)
board.processor.cores4.core.fetch.squashCycles        16890                       # Number of cycles fetch has spent squashing (Cycle)
board.processor.cores4.core.fetch.miscStallCycles           29                       # Number of cycles fetch has spent waiting on interrupts, or bad addresses, or out of MSHRs (Cycle)
board.processor.cores4.core.fetch.pendingTrapStallCycles          190                       # Number of stall cycles due to pending traps (Cycle)
board.processor.cores4.core.fetch.cacheLines       131905                       # Number of cache lines fetched (Count)
board.processor.cores4.core.fetch.icacheSquashes         8282                       # Number of outstanding Icache misses that were squashed (Count)
board.processor.cores4.core.fetch.nisnDist::samples       623296                       # Number of instructions fetched each cycle (Total) (Count)
board.processor.cores4.core.fetch.nisnDist::mean     2.486839                       # Number of instructions fetched each cycle (Total) (Count)
board.processor.cores4.core.fetch.nisnDist::stdev     3.393484                       # Number of instructions fetched each cycle (Total) (Count)
board.processor.cores4.core.fetch.nisnDist::underflows            0      0.00%      0.00% # Number of instructions fetched each cycle (Total) (Count)
board.processor.cores4.core.fetch.nisnDist::0       384198     61.64%     61.64% # Number of instructions fetched each cycle (Total) (Count)
board.processor.cores4.core.fetch.nisnDist::1           79      0.01%     61.65% # Number of instructions fetched each cycle (Total) (Count)
board.processor.cores4.core.fetch.nisnDist::2        16414      2.63%     64.29% # Number of instructions fetched each cycle (Total) (Count)
board.processor.cores4.core.fetch.nisnDist::3        24658      3.96%     68.24% # Number of instructions fetched each cycle (Total) (Count)
board.processor.cores4.core.fetch.nisnDist::4         8282      1.33%     69.57% # Number of instructions fetched each cycle (Total) (Count)
board.processor.cores4.core.fetch.nisnDist::5          156      0.03%     69.60% # Number of instructions fetched each cycle (Total) (Count)
board.processor.cores4.core.fetch.nisnDist::6        41054      6.59%     76.18% # Number of instructions fetched each cycle (Total) (Count)
board.processor.cores4.core.fetch.nisnDist::7        24716      3.97%     80.15% # Number of instructions fetched each cycle (Total) (Count)
board.processor.cores4.core.fetch.nisnDist::8       123739     19.85%    100.00% # Number of instructions fetched each cycle (Total) (Count)
board.processor.cores4.core.fetch.nisnDist::overflows            0      0.00%    100.00% # Number of instructions fetched each cycle (Total) (Count)
board.processor.cores4.core.fetch.nisnDist::min_value            0                       # Number of instructions fetched each cycle (Total) (Count)
board.processor.cores4.core.fetch.nisnDist::max_value            8                       # Number of instructions fetched each cycle (Total) (Count)
board.processor.cores4.core.fetch.nisnDist::total       623296                       # Number of instructions fetched each cycle (Total) (Count)
board.processor.cores4.core.fetchStats0.numInsts       930377                       # Number of instructions fetched (thread level) (Count)
board.processor.cores4.core.fetchStats0.numOps            0                       # Number of ops (including micro ops) fetched (thread level) (Count)
board.processor.cores4.core.fetchStats0.fetchRate     1.492357                       # Number of inst fetches per cycle ((Count/Cycle))
board.processor.cores4.core.fetchStats0.numBranches        99451                       # Number of branches fetched (Count)
board.processor.cores4.core.fetchStats0.branchRate     0.159523                       # Number of branch fetches per cycle (Ratio)
board.processor.cores4.core.fetchStats0.icacheStallCycles       134225                       # ICache total stall cycles (Cycle)
board.processor.cores4.core.fetchStats0.numFetchSuspends            0                       # Number of times Execute suspended instruction fetching (Count)
board.processor.cores4.core.iew.idleCycles            0                       # Number of cycles IEW is idle (Cycle)
board.processor.cores4.core.iew.squashCycles         8332                       # Number of cycles IEW is squashing (Cycle)
board.processor.cores4.core.iew.blockCycles       202810                       # Number of cycles IEW is blocking (Cycle)
board.processor.cores4.core.iew.unblockCycles        16887                       # Number of cycles IEW is unblocking (Cycle)
board.processor.cores4.core.iew.dispatchedInsts      1219875                       # Number of instructions dispatched to IQ (Count)
board.processor.cores4.core.iew.dispSquashedInsts           16                       # Number of squashed instructions skipped by dispatch (Count)
board.processor.cores4.core.iew.dispLoadInsts       304194                       # Number of dispatched load instructions (Count)
board.processor.cores4.core.iew.dispStoreInsts        98954                       # Number of dispatched store instructions (Count)
board.processor.cores4.core.iew.dispNonSpecInsts        16407                       # Number of dispatched non-speculative instructions (Count)
board.processor.cores4.core.iew.iqFullEvents           16                       # Number of times the IQ has become full, causing a stall (Count)
board.processor.cores4.core.iew.lsqFullEvents           20                       # Number of times the LSQ has become full, causing a stall (Count)
board.processor.cores4.core.iew.memOrderViolationEvents         8201                       # Number of memory order violations (Count)
board.processor.cores4.core.iew.predictedTakenIncorrect            8                       # Number of branches that were predicted taken incorrectly (Count)
board.processor.cores4.core.iew.predictedNotTakenIncorrect          133                       # Number of branches that were predicted not taken incorrectly (Count)
board.processor.cores4.core.iew.branchMispredicts          141                       # Number of branch mispredicts detected at execute (Count)
board.processor.cores4.core.iew.instsToCommit       874478                       # Cumulative count of insts sent to commit (Count)
board.processor.cores4.core.iew.writebackCount       874362                       # Cumulative count of insts written-back (Count)
board.processor.cores4.core.iew.producerInst       650478                       # Number of instructions producing a value (Count)
board.processor.cores4.core.iew.consumerInst       946602                       # Number of instructions consuming a value (Count)
board.processor.cores4.core.iew.wbRate       1.402507                       # Insts written-back per cycle ((Count/Cycle))
board.processor.cores4.core.iew.wbFanout     0.687172                       # Average fanout of values written-back ((Count/Count))
board.processor.cores4.core.interrupts.clk_domain.clock         5328                       # Clock period in ticks (Tick)
board.processor.cores4.core.lsq0.forwLoads        16591                       # Number of loads that had data forwarded from stores (Count)
board.processor.cores4.core.lsq0.squashedLoads       172551                       # Number of loads squashed (Count)
board.processor.cores4.core.lsq0.ignoredResponses            0                       # Number of memory responses ignored because the instruction is squashed (Count)
board.processor.cores4.core.lsq0.memOrderViolation         8201                       # Number of memory ordering violations (Count)
board.processor.cores4.core.lsq0.squashedStores        49361                       # Number of stores squashed (Count)
board.processor.cores4.core.lsq0.rescheduledLoads            0                       # Number of loads that were rescheduled (Count)
board.processor.cores4.core.lsq0.blockedByCache            1                       # Number of times an access to memory failed due to the cache being blocked (Count)
board.processor.cores4.core.lsq0.loadToUse::samples       131643                       # Distribution of cycle latency between the first time a load is issued and its completion (Unspecified)
board.processor.cores4.core.lsq0.loadToUse::mean     2.967913                       # Distribution of cycle latency between the first time a load is issued and its completion (Unspecified)
board.processor.cores4.core.lsq0.loadToUse::stdev     1.638485                       # Distribution of cycle latency between the first time a load is issued and its completion (Unspecified)
board.processor.cores4.core.lsq0.loadToUse::0-9       131070     99.56%     99.56% # Distribution of cycle latency between the first time a load is issued and its completion (Unspecified)
board.processor.cores4.core.lsq0.loadToUse::10-19           57      0.04%     99.61% # Distribution of cycle latency between the first time a load is issued and its completion (Unspecified)
board.processor.cores4.core.lsq0.loadToUse::20-29          491      0.37%     99.98% # Distribution of cycle latency between the first time a load is issued and its completion (Unspecified)
board.processor.cores4.core.lsq0.loadToUse::30-39           22      0.02%    100.00% # Distribution of cycle latency between the first time a load is issued and its completion (Unspecified)
board.processor.cores4.core.lsq0.loadToUse::140-149            1      0.00%    100.00% # Distribution of cycle latency between the first time a load is issued and its completion (Unspecified)
board.processor.cores4.core.lsq0.loadToUse::170-179            1      0.00%    100.00% # Distribution of cycle latency between the first time a load is issued and its completion (Unspecified)
board.processor.cores4.core.lsq0.loadToUse::190-199            1      0.00%    100.00% # Distribution of cycle latency between the first time a load is issued and its completion (Unspecified)
board.processor.cores4.core.lsq0.loadToUse::min_value            2                       # Distribution of cycle latency between the first time a load is issued and its completion (Unspecified)
board.processor.cores4.core.lsq0.loadToUse::max_value          191                       # Distribution of cycle latency between the first time a load is issued and its completion (Unspecified)
board.processor.cores4.core.lsq0.loadToUse::total       131643                       # Distribution of cycle latency between the first time a load is issued and its completion (Unspecified)
board.processor.cores4.core.mmu.dtb.rdAccesses       221990                       # TLB accesses on read requests (Count)
board.processor.cores4.core.mmu.dtb.wrAccesses        66102                       # TLB accesses on write requests (Count)
board.processor.cores4.core.mmu.dtb.rdMisses           68                       # TLB misses on read requests (Count)
board.processor.cores4.core.mmu.dtb.wrMisses            8                       # TLB misses on write requests (Count)
board.processor.cores4.core.mmu.dtb.walker.power_state.pwrStateResidencyTicks::UNDEFINED    444910311                       # Cumulative time (in ticks) in various power states (Tick)
board.processor.cores4.core.mmu.itb.rdAccesses            0                       # TLB accesses on read requests (Count)
board.processor.cores4.core.mmu.itb.wrAccesses       131937                       # TLB accesses on write requests (Count)
board.processor.cores4.core.mmu.itb.rdMisses            0                       # TLB misses on read requests (Count)
board.processor.cores4.core.mmu.itb.wrMisses           74                       # TLB misses on write requests (Count)
board.processor.cores4.core.mmu.itb.walker.power_state.pwrStateResidencyTicks::UNDEFINED    444910311                       # Cumulative time (in ticks) in various power states (Tick)
board.processor.cores4.core.power_state.pwrStateResidencyTicks::ON    444910311                       # Cumulative time (in ticks) in various power states (Tick)
board.processor.cores4.core.rename.squashCycles         8332                       # Number of cycles rename is squashing (Cycle)
board.processor.cores4.core.rename.idleCycles        85229                       # Number of cycles rename is idle (Cycle)
board.processor.cores4.core.rename.blockCycles       271665                       # Number of cycles rename is blocking (Cycle)
board.processor.cores4.core.rename.serializeStallCycles            0                       # count of cycles rename stalled for serializing inst (Cycle)
board.processor.cores4.core.rename.runCycles       165055                       # Number of cycles rename is running (Cycle)
board.processor.cores4.core.rename.unblockCycles        93015                       # Number of cycles rename is unblocking (Cycle)
board.processor.cores4.core.rename.renamedInsts      1285962                       # Number of instructions processed by rename (Count)
board.processor.cores4.core.rename.ROBFullEvents            5                       # Number of times rename has blocked due to ROB full (Count)
board.processor.cores4.core.rename.IQFullEvents        92246                       # Number of times rename has blocked due to IQ full (Count)
board.processor.cores4.core.rename.LQFullEvents           84                       # Number of times rename has blocked due to LQ full (Count)
board.processor.cores4.core.rename.SQFullEvents          670                       # Number of times rename has blocked due to SQ full (Count)
board.processor.cores4.core.rename.renamedOperands      2034516                       # Number of destination operands rename has renamed (Count)
board.processor.cores4.core.rename.lookups      4021074                       # Number of register rename lookups that rename has made (Count)
board.processor.cores4.core.rename.intLookups      1523766                       # Number of integer rename lookups (Count)
board.processor.cores4.core.rename.fpLookups           27                       # Number of floating rename lookups (Count)
board.processor.cores4.core.rename.committedMaps       816906                       # Number of HB maps that are committed (Count)
board.processor.cores4.core.rename.undoneMaps      1217610                       # Number of HB maps that are undone due to squashing (Count)
board.processor.cores4.core.rename.serializing            0                       # count of serializing insts renamed (Count)
board.processor.cores4.core.rename.tempSerializing            0                       # count of temporary serializing insts renamed (Count)
board.processor.cores4.core.rename.skidInsts       142762                       # count of insts added to the skid buffer (Count)
board.processor.cores4.core.rob.reads         1720421                       # The number of ROB reads (Count)
board.processor.cores4.core.rob.writes        2529992                       # The number of ROB writes (Count)
board.processor.cores4.core.thread_0.numInsts       313252                       # Number of Instructions committed (Count)
board.processor.cores4.core.thread_0.numOps       528443                       # Number of Ops committed (Count)
board.processor.cores4.core.thread_0.numMemRefs            0                       # Number of Memory References (Count)
board.workload.inst.arm                             0                       # number of arm instructions executed (Count)
board.workload.inst.quiesce                         0                       # number of quiesce instructions executed (Count)

---------- End Simulation Statistics   ----------
