
---------- Begin Simulation Statistics ----------
simSeconds                                   0.000839                       # Number of seconds simulated (Second)
simTicks                                    838572588                       # Number of ticks simulated (Tick)
finalTick                                  1094066172                       # Number of ticks from beginning of simulation (restored from checkpoints and never reset) (Tick)
simFreq                                  1000000000000                       # The number of ticks per simulated second ((Tick/Second))
hostSeconds                                     12.23                       # Real time elapsed on the host (Second)
hostTickRate                                 68567014                       # The number of ticks simulated per host second (ticks/s) ((Tick/Second))
hostMemory                                    1482624                       # Number of bytes of host memory used (Byte)
simInsts                                      1678875                       # Number of instructions simulated (Count)
simOps                                        2798828                       # Number of ops (including micro ops) simulated (Count)
hostInstRate                                   137274                       # Simulator instruction rate (inst/s) ((Count/Second))
hostOpRate                                     228847                       # Simulator op (including micro ops) rate (op/s) ((Count/Second))
board.cache_hierarchy.ruby_system.delayHistogram::bucket_size            4                       # delay histogram for all message (Unspecified)
board.cache_hierarchy.ruby_system.delayHistogram::max_bucket           39                       # delay histogram for all message (Unspecified)
board.cache_hierarchy.ruby_system.delayHistogram::samples        12353                       # delay histogram for all message (Unspecified)
board.cache_hierarchy.ruby_system.delayHistogram::mean     0.391808                       # delay histogram for all message (Unspecified)
board.cache_hierarchy.ruby_system.delayHistogram::stdev     1.879456                       # delay histogram for all message (Unspecified)
board.cache_hierarchy.ruby_system.delayHistogram |       11786     95.41%     95.41% |          30      0.24%     95.65% |         507      4.10%     99.76% |           9      0.07%     99.83% |          11      0.09%     99.92% |           2      0.02%     99.94% |           6      0.05%     99.98% |           0      0.00%     99.98% |           2      0.02%    100.00% |           0      0.00%    100.00% # delay histogram for all message (Unspecified)
board.cache_hierarchy.ruby_system.delayHistogram::total        12353                       # delay histogram for all message (Unspecified)
board.cache_hierarchy.ruby_system.m_outstandReqHistSeqr::bucket_size            2                       (Unspecified)
board.cache_hierarchy.ruby_system.m_outstandReqHistSeqr::max_bucket           19                       (Unspecified)
board.cache_hierarchy.ruby_system.m_outstandReqHistSeqr::samples      1087474                       (Unspecified)
board.cache_hierarchy.ruby_system.m_outstandReqHistSeqr::mean     1.016334                       (Unspecified)
board.cache_hierarchy.ruby_system.m_outstandReqHistSeqr::gmean     1.010133                       (Unspecified)
board.cache_hierarchy.ruby_system.m_outstandReqHistSeqr::stdev     0.178133                       (Unspecified)
board.cache_hierarchy.ruby_system.m_outstandReqHistSeqr |     1073258     98.69%     98.69% |       13441      1.24%     99.93% |         576      0.05%     99.98% |         113      0.01%     99.99% |          42      0.00%    100.00% |          17      0.00%    100.00% |           7      0.00%    100.00% |          13      0.00%    100.00% |           7      0.00%    100.00% |           0      0.00%    100.00% (Unspecified)
board.cache_hierarchy.ruby_system.m_outstandReqHistSeqr::total      1087474                       (Unspecified)
board.cache_hierarchy.ruby_system.m_latencyHistSeqr::bucket_size          128                       (Unspecified)
board.cache_hierarchy.ruby_system.m_latencyHistSeqr::max_bucket         1279                       (Unspecified)
board.cache_hierarchy.ruby_system.m_latencyHistSeqr::samples      1087530                       (Unspecified)
board.cache_hierarchy.ruby_system.m_latencyHistSeqr::mean     1.114492                       (Unspecified)
board.cache_hierarchy.ruby_system.m_latencyHistSeqr::gmean     1.008044                       (Unspecified)
board.cache_hierarchy.ruby_system.m_latencyHistSeqr::stdev     4.580564                       (Unspecified)
board.cache_hierarchy.ruby_system.m_latencyHistSeqr |     1087082     99.96%     99.96% |         433      0.04%    100.00% |          10      0.00%    100.00% |           0      0.00%    100.00% |           0      0.00%    100.00% |           0      0.00%    100.00% |           0      0.00%    100.00% |           0      0.00%    100.00% |           0      0.00%    100.00% |           5      0.00%    100.00% (Unspecified)
board.cache_hierarchy.ruby_system.m_latencyHistSeqr::total      1087530                       (Unspecified)
board.cache_hierarchy.ruby_system.m_hitLatencyHistSeqr::bucket_size           32                       (Unspecified)
board.cache_hierarchy.ruby_system.m_hitLatencyHistSeqr::max_bucket          319                       (Unspecified)
board.cache_hierarchy.ruby_system.m_hitLatencyHistSeqr::samples      1084824                       (Unspecified)
board.cache_hierarchy.ruby_system.m_hitLatencyHistSeqr::mean     1.000265                       (Unspecified)
board.cache_hierarchy.ruby_system.m_hitLatencyHistSeqr::gmean     1.000045                       (Unspecified)
board.cache_hierarchy.ruby_system.m_hitLatencyHistSeqr::stdev     0.173827                       (Unspecified)
board.cache_hierarchy.ruby_system.m_hitLatencyHistSeqr |     1084822    100.00%    100.00% |           1      0.00%    100.00% |           0      0.00%    100.00% |           0      0.00%    100.00% |           0      0.00%    100.00% |           1      0.00%    100.00% |           0      0.00%    100.00% |           0      0.00%    100.00% |           0      0.00%    100.00% |           0      0.00%    100.00% (Unspecified)
board.cache_hierarchy.ruby_system.m_hitLatencyHistSeqr::total      1084824                       (Unspecified)
board.cache_hierarchy.ruby_system.m_missLatencyHistSeqr::bucket_size          128                       (Unspecified)
board.cache_hierarchy.ruby_system.m_missLatencyHistSeqr::max_bucket         1279                       (Unspecified)
board.cache_hierarchy.ruby_system.m_missLatencyHistSeqr::samples         2706                       (Unspecified)
board.cache_hierarchy.ruby_system.m_missLatencyHistSeqr::mean    46.907613                       (Unspecified)
board.cache_hierarchy.ruby_system.m_missLatencyHistSeqr::gmean    24.577567                       (Unspecified)
board.cache_hierarchy.ruby_system.m_missLatencyHistSeqr::stdev    79.500797                       (Unspecified)
board.cache_hierarchy.ruby_system.m_missLatencyHistSeqr |        2259     83.48%     83.48% |         432     15.96%     99.45% |          10      0.37%     99.82% |           0      0.00%     99.82% |           0      0.00%     99.82% |           0      0.00%     99.82% |           0      0.00%     99.82% |           0      0.00%     99.82% |           0      0.00%     99.82% |           5      0.18%    100.00% (Unspecified)
board.cache_hierarchy.ruby_system.m_missLatencyHistSeqr::total         2706                       (Unspecified)
board.cache_hierarchy.ruby_system.delayVCHist.vnet_0::bucket_size            4                       # delay histogram for vnet_0 (Unspecified)
board.cache_hierarchy.ruby_system.delayVCHist.vnet_0::max_bucket           39                       # delay histogram for vnet_0 (Unspecified)
board.cache_hierarchy.ruby_system.delayVCHist.vnet_0::samples         6670                       # delay histogram for vnet_0 (Unspecified)
board.cache_hierarchy.ruby_system.delayVCHist.vnet_0::mean     0.191904                       # delay histogram for vnet_0 (Unspecified)
board.cache_hierarchy.ruby_system.delayVCHist.vnet_0::stdev     1.441120                       # delay histogram for vnet_0 (Unspecified)
board.cache_hierarchy.ruby_system.delayVCHist.vnet_0 |        6534     97.96%     97.96% |          17      0.25%     98.22% |          98      1.47%     99.69% |           8      0.12%     99.81% |           8      0.12%     99.93% |           1      0.01%     99.94% |           3      0.04%     99.99% |           0      0.00%     99.99% |           1      0.01%    100.00% |           0      0.00%    100.00% # delay histogram for vnet_0 (Unspecified)
board.cache_hierarchy.ruby_system.delayVCHist.vnet_0::total         6670                       # delay histogram for vnet_0 (Unspecified)
board.cache_hierarchy.ruby_system.delayVCHist.vnet_1::bucket_size            4                       # delay histogram for vnet_1 (Unspecified)
board.cache_hierarchy.ruby_system.delayVCHist.vnet_1::max_bucket           39                       # delay histogram for vnet_1 (Unspecified)
board.cache_hierarchy.ruby_system.delayVCHist.vnet_1::samples         5268                       # delay histogram for vnet_1 (Unspecified)
board.cache_hierarchy.ruby_system.delayVCHist.vnet_1::mean     0.675778                       # delay histogram for vnet_1 (Unspecified)
board.cache_hierarchy.ruby_system.delayVCHist.vnet_1::stdev     2.347544                       # delay histogram for vnet_1 (Unspecified)
board.cache_hierarchy.ruby_system.delayVCHist.vnet_1 |        4837     91.82%     91.82% |          13      0.25%     92.07% |         409      7.76%     99.83% |           1      0.02%     99.85% |           3      0.06%     99.91% |           1      0.02%     99.92% |           3      0.06%     99.98% |           0      0.00%     99.98% |           1      0.02%    100.00% |           0      0.00%    100.00% # delay histogram for vnet_1 (Unspecified)
board.cache_hierarchy.ruby_system.delayVCHist.vnet_1::total         5268                       # delay histogram for vnet_1 (Unspecified)
board.cache_hierarchy.ruby_system.delayVCHist.vnet_2::bucket_size            1                       # delay histogram for vnet_2 (Unspecified)
board.cache_hierarchy.ruby_system.delayVCHist.vnet_2::max_bucket            9                       # delay histogram for vnet_2 (Unspecified)
board.cache_hierarchy.ruby_system.delayVCHist.vnet_2::samples          415                       # delay histogram for vnet_2 (Unspecified)
board.cache_hierarchy.ruby_system.delayVCHist.vnet_2 |         415    100.00%    100.00% |           0      0.00%    100.00% |           0      0.00%    100.00% |           0      0.00%    100.00% |           0      0.00%    100.00% |           0      0.00%    100.00% |           0      0.00%    100.00% |           0      0.00%    100.00% |           0      0.00%    100.00% |           0      0.00%    100.00% # delay histogram for vnet_2 (Unspecified)
board.cache_hierarchy.ruby_system.delayVCHist.vnet_2::total          415                       # delay histogram for vnet_2 (Unspecified)
board.cache_hierarchy.ruby_system.Directory_Controller.Fetch          446      0.00%      0.00% (Unspecified)
board.cache_hierarchy.ruby_system.Directory_Controller.Memory_Data          446      0.00%      0.00% (Unspecified)
board.cache_hierarchy.ruby_system.Directory_Controller.I.Fetch          446      0.00%      0.00% (Unspecified)
board.cache_hierarchy.ruby_system.Directory_Controller.IM.Memory_Data          446      0.00%      0.00% (Unspecified)
board.cache_hierarchy.ruby_system.L1Cache_Controller.Load |        1012      0.34%      0.34% |      295495     99.66%    100.00% (Unspecified)
board.cache_hierarchy.ruby_system.L1Cache_Controller.Load::total       296507                       (Unspecified)
board.cache_hierarchy.ruby_system.L1Cache_Controller.Ifetch |        1546      0.29%      0.29% |      525078     99.71%    100.00% (Unspecified)
board.cache_hierarchy.ruby_system.L1Cache_Controller.Ifetch::total       526624                       (Unspecified)
board.cache_hierarchy.ruby_system.L1Cache_Controller.Store |        1507      0.57%      0.57% |      262892     99.43%    100.00% (Unspecified)
board.cache_hierarchy.ruby_system.L1Cache_Controller.Store::total       264399                       (Unspecified)
board.cache_hierarchy.ruby_system.L1Cache_Controller.Inv |           9     75.00%     75.00% |           3     25.00%    100.00% (Unspecified)
board.cache_hierarchy.ruby_system.L1Cache_Controller.Inv::total           12                       (Unspecified)
board.cache_hierarchy.ruby_system.L1Cache_Controller.L1_Replacement |         353     17.72%     17.72% |        1639     82.28%    100.00% (Unspecified)
board.cache_hierarchy.ruby_system.L1Cache_Controller.L1_Replacement::total         1992                       (Unspecified)
board.cache_hierarchy.ruby_system.L1Cache_Controller.Fwd_GETX |           4     80.00%     80.00% |           1     20.00%    100.00% (Unspecified)
board.cache_hierarchy.ruby_system.L1Cache_Controller.Fwd_GETX::total            5                       (Unspecified)
board.cache_hierarchy.ruby_system.L1Cache_Controller.Fwd_GETS |         395     99.25%     99.25% |           3      0.75%    100.00% (Unspecified)
board.cache_hierarchy.ruby_system.L1Cache_Controller.Fwd_GETS::total          398                       (Unspecified)
board.cache_hierarchy.ruby_system.L1Cache_Controller.Data_Exclusive |          47      2.70%      2.70% |        1692     97.30%    100.00% (Unspecified)
board.cache_hierarchy.ruby_system.L1Cache_Controller.Data_Exclusive::total         1739                       (Unspecified)
board.cache_hierarchy.ruby_system.L1Cache_Controller.DataS_fromL1 |           3      0.75%      0.75% |         395     99.25%    100.00% (Unspecified)
board.cache_hierarchy.ruby_system.L1Cache_Controller.DataS_fromL1::total          398                       (Unspecified)
board.cache_hierarchy.ruby_system.L1Cache_Controller.Data_all_Acks |         305     54.76%     54.76% |         252     45.24%    100.00% (Unspecified)
board.cache_hierarchy.ruby_system.L1Cache_Controller.Data_all_Acks::total          557                       (Unspecified)
board.cache_hierarchy.ruby_system.L1Cache_Controller.Ack |           3     25.00%     25.00% |           9     75.00%    100.00% (Unspecified)
board.cache_hierarchy.ruby_system.L1Cache_Controller.Ack::total           12                       (Unspecified)
board.cache_hierarchy.ruby_system.L1Cache_Controller.Ack_all |           3     25.00%     25.00% |           9     75.00%    100.00% (Unspecified)
board.cache_hierarchy.ruby_system.L1Cache_Controller.Ack_all::total           12                       (Unspecified)
board.cache_hierarchy.ruby_system.L1Cache_Controller.WB_Ack |          92      5.39%      5.39% |        1614     94.61%    100.00% (Unspecified)
board.cache_hierarchy.ruby_system.L1Cache_Controller.WB_Ack::total         1706                       (Unspecified)
board.cache_hierarchy.ruby_system.L1Cache_Controller.NP.Load |          49      2.29%      2.29% |        2089     97.71%    100.00% (Unspecified)
board.cache_hierarchy.ruby_system.L1Cache_Controller.NP.Load::total         2138                       (Unspecified)
board.cache_hierarchy.ruby_system.L1Cache_Controller.NP.Ifetch |         257     57.75%     57.75% |         188     42.25%    100.00% (Unspecified)
board.cache_hierarchy.ruby_system.L1Cache_Controller.NP.Ifetch::total          445                       (Unspecified)
board.cache_hierarchy.ruby_system.L1Cache_Controller.NP.Store |          46     42.59%     42.59% |          62     57.41%    100.00% (Unspecified)
board.cache_hierarchy.ruby_system.L1Cache_Controller.NP.Store::total          108                       (Unspecified)
board.cache_hierarchy.ruby_system.L1Cache_Controller.I.Load |           2    100.00%    100.00% |           0      0.00%    100.00% (Unspecified)
board.cache_hierarchy.ruby_system.L1Cache_Controller.I.Load::total            2                       (Unspecified)
board.cache_hierarchy.ruby_system.L1Cache_Controller.I.Store |           1    100.00%    100.00% |           0      0.00%    100.00% (Unspecified)
board.cache_hierarchy.ruby_system.L1Cache_Controller.I.Store::total            1                       (Unspecified)
board.cache_hierarchy.ruby_system.L1Cache_Controller.I.L1_Replacement |           0      0.00%      0.00% |           1    100.00%    100.00% (Unspecified)
board.cache_hierarchy.ruby_system.L1Cache_Controller.I.L1_Replacement::total            1                       (Unspecified)
board.cache_hierarchy.ruby_system.L1Cache_Controller.S.Load |           3      0.05%      0.05% |        5674     99.95%    100.00% (Unspecified)
board.cache_hierarchy.ruby_system.L1Cache_Controller.S.Load::total         5677                       (Unspecified)
board.cache_hierarchy.ruby_system.L1Cache_Controller.S.Ifetch |        1289      0.24%      0.24% |      524890     99.76%    100.00% (Unspecified)
board.cache_hierarchy.ruby_system.L1Cache_Controller.S.Ifetch::total       526179                       (Unspecified)
board.cache_hierarchy.ruby_system.L1Cache_Controller.S.Store |           3     25.00%     25.00% |           9     75.00%    100.00% (Unspecified)
board.cache_hierarchy.ruby_system.L1Cache_Controller.S.Store::total           12                       (Unspecified)
board.cache_hierarchy.ruby_system.L1Cache_Controller.S.Inv |           9     75.00%     75.00% |           3     25.00%    100.00% (Unspecified)
board.cache_hierarchy.ruby_system.L1Cache_Controller.S.Inv::total           12                       (Unspecified)
board.cache_hierarchy.ruby_system.L1Cache_Controller.S.L1_Replacement |         261     91.58%     91.58% |          24      8.42%    100.00% (Unspecified)
board.cache_hierarchy.ruby_system.L1Cache_Controller.S.L1_Replacement::total          285                       (Unspecified)
board.cache_hierarchy.ruby_system.L1Cache_Controller.E.Load |         154      0.61%      0.61% |       25116     99.39%    100.00% (Unspecified)
board.cache_hierarchy.ruby_system.L1Cache_Controller.E.Load::total        25270                       (Unspecified)
board.cache_hierarchy.ruby_system.L1Cache_Controller.E.Store |          14     63.64%     63.64% |           8     36.36%    100.00% (Unspecified)
board.cache_hierarchy.ruby_system.L1Cache_Controller.E.Store::total           22                       (Unspecified)
board.cache_hierarchy.ruby_system.L1Cache_Controller.E.L1_Replacement |           1      0.06%      0.06% |        1602     99.94%    100.00% (Unspecified)
board.cache_hierarchy.ruby_system.L1Cache_Controller.E.L1_Replacement::total         1603                       (Unspecified)
board.cache_hierarchy.ruby_system.L1Cache_Controller.E.Fwd_GETS |           9    100.00%    100.00% |           0      0.00%    100.00% (Unspecified)
board.cache_hierarchy.ruby_system.L1Cache_Controller.E.Fwd_GETS::total            9                       (Unspecified)
board.cache_hierarchy.ruby_system.L1Cache_Controller.M.Load |         804      0.31%      0.31% |      262616     99.69%    100.00% (Unspecified)
board.cache_hierarchy.ruby_system.L1Cache_Controller.M.Load::total       263420                       (Unspecified)
board.cache_hierarchy.ruby_system.L1Cache_Controller.M.Store |        1443      0.55%      0.55% |      262813     99.45%    100.00% (Unspecified)
board.cache_hierarchy.ruby_system.L1Cache_Controller.M.Store::total       264256                       (Unspecified)
board.cache_hierarchy.ruby_system.L1Cache_Controller.M.L1_Replacement |          91     88.35%     88.35% |          12     11.65%    100.00% (Unspecified)
board.cache_hierarchy.ruby_system.L1Cache_Controller.M.L1_Replacement::total          103                       (Unspecified)
board.cache_hierarchy.ruby_system.L1Cache_Controller.M.Fwd_GETX |           4     80.00%     80.00% |           1     20.00%    100.00% (Unspecified)
board.cache_hierarchy.ruby_system.L1Cache_Controller.M.Fwd_GETX::total            5                       (Unspecified)
board.cache_hierarchy.ruby_system.L1Cache_Controller.M.Fwd_GETS |         386     99.23%     99.23% |           3      0.77%    100.00% (Unspecified)
board.cache_hierarchy.ruby_system.L1Cache_Controller.M.Fwd_GETS::total          389                       (Unspecified)
board.cache_hierarchy.ruby_system.L1Cache_Controller.IS.Data_Exclusive |          47      2.70%      2.70% |        1692     97.30%    100.00% (Unspecified)
board.cache_hierarchy.ruby_system.L1Cache_Controller.IS.Data_Exclusive::total         1739                       (Unspecified)
board.cache_hierarchy.ruby_system.L1Cache_Controller.IS.DataS_fromL1 |           3      0.75%      0.75% |         395     99.25%    100.00% (Unspecified)
board.cache_hierarchy.ruby_system.L1Cache_Controller.IS.DataS_fromL1::total          398                       (Unspecified)
board.cache_hierarchy.ruby_system.L1Cache_Controller.IS.Data_all_Acks |         258     57.59%     57.59% |         190     42.41%    100.00% (Unspecified)
board.cache_hierarchy.ruby_system.L1Cache_Controller.IS.Data_all_Acks::total          448                       (Unspecified)
board.cache_hierarchy.ruby_system.L1Cache_Controller.IM.Data_all_Acks |          47     43.12%     43.12% |          62     56.88%    100.00% (Unspecified)
board.cache_hierarchy.ruby_system.L1Cache_Controller.IM.Data_all_Acks::total          109                       (Unspecified)
board.cache_hierarchy.ruby_system.L1Cache_Controller.SM.Ack |           3     25.00%     25.00% |           9     75.00%    100.00% (Unspecified)
board.cache_hierarchy.ruby_system.L1Cache_Controller.SM.Ack::total           12                       (Unspecified)
board.cache_hierarchy.ruby_system.L1Cache_Controller.SM.Ack_all |           3     25.00%     25.00% |           9     75.00%    100.00% (Unspecified)
board.cache_hierarchy.ruby_system.L1Cache_Controller.SM.Ack_all::total           12                       (Unspecified)
board.cache_hierarchy.ruby_system.L1Cache_Controller.M_I.WB_Ack |          92      5.39%      5.39% |        1614     94.61%    100.00% (Unspecified)
board.cache_hierarchy.ruby_system.L1Cache_Controller.M_I.WB_Ack::total         1706                       (Unspecified)
board.cache_hierarchy.ruby_system.L2Cache_Controller.L1_GET_INSTR          445      0.00%      0.00% (Unspecified)
board.cache_hierarchy.ruby_system.L2Cache_Controller.L1_GETS         2140      0.00%      0.00% (Unspecified)
board.cache_hierarchy.ruby_system.L2Cache_Controller.L1_GETX          109      0.00%      0.00% (Unspecified)
board.cache_hierarchy.ruby_system.L2Cache_Controller.L1_UPGRADE           12      0.00%      0.00% (Unspecified)
board.cache_hierarchy.ruby_system.L2Cache_Controller.L1_PUTX         1706      0.00%      0.00% (Unspecified)
board.cache_hierarchy.ruby_system.L2Cache_Controller.Mem_Data          446      0.00%      0.00% (Unspecified)
board.cache_hierarchy.ruby_system.L2Cache_Controller.WB_Data          389      0.00%      0.00% (Unspecified)
board.cache_hierarchy.ruby_system.L2Cache_Controller.WB_Data_clean            9      0.00%      0.00% (Unspecified)
board.cache_hierarchy.ruby_system.L2Cache_Controller.Unblock          398      0.00%      0.00% (Unspecified)
board.cache_hierarchy.ruby_system.L2Cache_Controller.Exclusive_Unblock         1860      0.00%      0.00% (Unspecified)
board.cache_hierarchy.ruby_system.L2Cache_Controller.NP.L1_GET_INSTR          342      0.00%      0.00% (Unspecified)
board.cache_hierarchy.ruby_system.L2Cache_Controller.NP.L1_GETS           15      0.00%      0.00% (Unspecified)
board.cache_hierarchy.ruby_system.L2Cache_Controller.NP.L1_GETX           89      0.00%      0.00% (Unspecified)
board.cache_hierarchy.ruby_system.L2Cache_Controller.SS.L1_GET_INSTR          101      0.00%      0.00% (Unspecified)
board.cache_hierarchy.ruby_system.L2Cache_Controller.SS.L1_GETS            3      0.00%      0.00% (Unspecified)
board.cache_hierarchy.ruby_system.L2Cache_Controller.SS.L1_UPGRADE           12      0.00%      0.00% (Unspecified)
board.cache_hierarchy.ruby_system.L2Cache_Controller.M.L1_GETS         1724      0.00%      0.00% (Unspecified)
board.cache_hierarchy.ruby_system.L2Cache_Controller.M.L1_GETX           15      0.00%      0.00% (Unspecified)
board.cache_hierarchy.ruby_system.L2Cache_Controller.MT.L1_GETS          398      0.00%      0.00% (Unspecified)
board.cache_hierarchy.ruby_system.L2Cache_Controller.MT.L1_GETX            5      0.00%      0.00% (Unspecified)
board.cache_hierarchy.ruby_system.L2Cache_Controller.MT.L1_PUTX         1706      0.00%      0.00% (Unspecified)
board.cache_hierarchy.ruby_system.L2Cache_Controller.ISS.Mem_Data           15      0.00%      0.00% (Unspecified)
board.cache_hierarchy.ruby_system.L2Cache_Controller.IS.L1_GET_INSTR            2      0.00%      0.00% (Unspecified)
board.cache_hierarchy.ruby_system.L2Cache_Controller.IS.Mem_Data          342      0.00%      0.00% (Unspecified)
board.cache_hierarchy.ruby_system.L2Cache_Controller.IM.Mem_Data           89      0.00%      0.00% (Unspecified)
board.cache_hierarchy.ruby_system.L2Cache_Controller.SS_MB.Exclusive_Unblock           12      0.00%      0.00% (Unspecified)
board.cache_hierarchy.ruby_system.L2Cache_Controller.MT_MB.Exclusive_Unblock         1848      0.00%      0.00% (Unspecified)
board.cache_hierarchy.ruby_system.L2Cache_Controller.MT_IIB.WB_Data          389      0.00%      0.00% (Unspecified)
board.cache_hierarchy.ruby_system.L2Cache_Controller.MT_IIB.WB_Data_clean            9      0.00%      0.00% (Unspecified)
board.cache_hierarchy.ruby_system.L2Cache_Controller.MT_SB.Unblock          398      0.00%      0.00% (Unspecified)
board.cache_hierarchy.ruby_system.RequestType.LD.latency_hist_seqr::bucket_size           32                       (Unspecified)
board.cache_hierarchy.ruby_system.RequestType.LD.latency_hist_seqr::max_bucket          319                       (Unspecified)
board.cache_hierarchy.ruby_system.RequestType.LD.latency_hist_seqr::samples       296507                       (Unspecified)
board.cache_hierarchy.ruby_system.RequestType.LD.latency_hist_seqr::mean     1.133737                       (Unspecified)
board.cache_hierarchy.ruby_system.RequestType.LD.latency_hist_seqr::gmean     1.020445                       (Unspecified)
board.cache_hierarchy.ruby_system.RequestType.LD.latency_hist_seqr::stdev     2.282959                       (Unspecified)
board.cache_hierarchy.ruby_system.RequestType.LD.latency_hist_seqr |      296058     99.85%     99.85% |         434      0.15%     99.99% |           0      0.00%     99.99% |           0      0.00%     99.99% |           0      0.00%     99.99% |           3      0.00%    100.00% |           6      0.00%    100.00% |           4      0.00%    100.00% |           2      0.00%    100.00% |           0      0.00%    100.00% (Unspecified)
board.cache_hierarchy.ruby_system.RequestType.LD.latency_hist_seqr::total       296507                       (Unspecified)
board.cache_hierarchy.ruby_system.RequestType.LD.hit_latency_hist_seqr::bucket_size            1                       (Unspecified)
board.cache_hierarchy.ruby_system.RequestType.LD.hit_latency_hist_seqr::max_bucket            9                       (Unspecified)
board.cache_hierarchy.ruby_system.RequestType.LD.hit_latency_hist_seqr::samples       294367                       (Unspecified)
board.cache_hierarchy.ruby_system.RequestType.LD.hit_latency_hist_seqr::mean            1                       (Unspecified)
board.cache_hierarchy.ruby_system.RequestType.LD.hit_latency_hist_seqr::gmean            1                       (Unspecified)
board.cache_hierarchy.ruby_system.RequestType.LD.hit_latency_hist_seqr |           0      0.00%      0.00% |      294367    100.00%    100.00% |           0      0.00%    100.00% |           0      0.00%    100.00% |           0      0.00%    100.00% |           0      0.00%    100.00% |           0      0.00%    100.00% |           0      0.00%    100.00% |           0      0.00%    100.00% |           0      0.00%    100.00% (Unspecified)
board.cache_hierarchy.ruby_system.RequestType.LD.hit_latency_hist_seqr::total       294367                       (Unspecified)
board.cache_hierarchy.ruby_system.RequestType.LD.miss_latency_hist_seqr::bucket_size           32                       (Unspecified)
board.cache_hierarchy.ruby_system.RequestType.LD.miss_latency_hist_seqr::max_bucket          319                       (Unspecified)
board.cache_hierarchy.ruby_system.RequestType.LD.miss_latency_hist_seqr::samples         2140                       (Unspecified)
board.cache_hierarchy.ruby_system.RequestType.LD.miss_latency_hist_seqr::mean    19.529907                       (Unspecified)
board.cache_hierarchy.ruby_system.RequestType.LD.miss_latency_hist_seqr::gmean    16.514483                       (Unspecified)
board.cache_hierarchy.ruby_system.RequestType.LD.miss_latency_hist_seqr::stdev    19.530237                       (Unspecified)
board.cache_hierarchy.ruby_system.RequestType.LD.miss_latency_hist_seqr |        1691     79.02%     79.02% |         434     20.28%     99.30% |           0      0.00%     99.30% |           0      0.00%     99.30% |           0      0.00%     99.30% |           3      0.14%     99.44% |           6      0.28%     99.72% |           4      0.19%     99.91% |           2      0.09%    100.00% |           0      0.00%    100.00% (Unspecified)
board.cache_hierarchy.ruby_system.RequestType.LD.miss_latency_hist_seqr::total         2140                       (Unspecified)
board.cache_hierarchy.ruby_system.RequestType.ST.latency_hist_seqr::bucket_size          128                       (Unspecified)
board.cache_hierarchy.ruby_system.RequestType.ST.latency_hist_seqr::max_bucket         1279                       (Unspecified)
board.cache_hierarchy.ruby_system.RequestType.ST.latency_hist_seqr::samples       165979                       (Unspecified)
board.cache_hierarchy.ruby_system.RequestType.ST.latency_hist_seqr::mean     1.101712                       (Unspecified)
board.cache_hierarchy.ruby_system.RequestType.ST.latency_hist_seqr::gmean     1.003383                       (Unspecified)
board.cache_hierarchy.ruby_system.RequestType.ST.latency_hist_seqr::stdev     5.049667                       (Unspecified)
board.cache_hierarchy.ruby_system.RequestType.ST.latency_hist_seqr |      165892     99.95%     99.95% |          84      0.05%    100.00% |           2      0.00%    100.00% |           0      0.00%    100.00% |           0      0.00%    100.00% |           0      0.00%    100.00% |           0      0.00%    100.00% |           0      0.00%    100.00% |           0      0.00%    100.00% |           1      0.00%    100.00% (Unspecified)
board.cache_hierarchy.ruby_system.RequestType.ST.latency_hist_seqr::total       165979                       (Unspecified)
board.cache_hierarchy.ruby_system.RequestType.ST.hit_latency_hist_seqr::bucket_size           32                       (Unspecified)
board.cache_hierarchy.ruby_system.RequestType.ST.hit_latency_hist_seqr::max_bucket          319                       (Unspecified)
board.cache_hierarchy.ruby_system.RequestType.ST.hit_latency_hist_seqr::samples       165874                       (Unspecified)
board.cache_hierarchy.ruby_system.RequestType.ST.hit_latency_hist_seqr::mean     1.001718                       (Unspecified)
board.cache_hierarchy.ruby_system.RequestType.ST.hit_latency_hist_seqr::gmean     1.000286                       (Unspecified)
board.cache_hierarchy.ruby_system.RequestType.ST.hit_latency_hist_seqr::stdev     0.444522                       (Unspecified)
board.cache_hierarchy.ruby_system.RequestType.ST.hit_latency_hist_seqr |      165872    100.00%    100.00% |           1      0.00%    100.00% |           0      0.00%    100.00% |           0      0.00%    100.00% |           0      0.00%    100.00% |           1      0.00%    100.00% |           0      0.00%    100.00% |           0      0.00%    100.00% |           0      0.00%    100.00% |           0      0.00%    100.00% (Unspecified)
board.cache_hierarchy.ruby_system.RequestType.ST.hit_latency_hist_seqr::total       165874                       (Unspecified)
board.cache_hierarchy.ruby_system.RequestType.ST.miss_latency_hist_seqr::bucket_size          128                       (Unspecified)
board.cache_hierarchy.ruby_system.RequestType.ST.miss_latency_hist_seqr::max_bucket         1279                       (Unspecified)
board.cache_hierarchy.ruby_system.RequestType.ST.miss_latency_hist_seqr::samples          105                       (Unspecified)
board.cache_hierarchy.ruby_system.RequestType.ST.miss_latency_hist_seqr::mean   159.066667                       (Unspecified)
board.cache_hierarchy.ruby_system.RequestType.ST.miss_latency_hist_seqr::gmean   132.628120                       (Unspecified)
board.cache_hierarchy.ruby_system.RequestType.ST.miss_latency_hist_seqr::stdev   123.171337                       (Unspecified)
board.cache_hierarchy.ruby_system.RequestType.ST.miss_latency_hist_seqr |          19     18.10%     18.10% |          83     79.05%     97.14% |           2      1.90%     99.05% |           0      0.00%     99.05% |           0      0.00%     99.05% |           0      0.00%     99.05% |           0      0.00%     99.05% |           0      0.00%     99.05% |           0      0.00%     99.05% |           1      0.95%    100.00% (Unspecified)
board.cache_hierarchy.ruby_system.RequestType.ST.miss_latency_hist_seqr::total          105                       (Unspecified)
board.cache_hierarchy.ruby_system.RequestType.IFETCH.latency_hist_seqr::bucket_size          128                       (Unspecified)
board.cache_hierarchy.ruby_system.RequestType.IFETCH.latency_hist_seqr::max_bucket         1279                       (Unspecified)
board.cache_hierarchy.ruby_system.RequestType.IFETCH.latency_hist_seqr::samples       526624                       (Unspecified)
board.cache_hierarchy.ruby_system.RequestType.IFETCH.latency_hist_seqr::mean     1.127144                       (Unspecified)
board.cache_hierarchy.ruby_system.RequestType.IFETCH.latency_hist_seqr::gmean     1.003975                       (Unspecified)
board.cache_hierarchy.ruby_system.RequestType.IFETCH.latency_hist_seqr::stdev     5.665587                       (Unspecified)
board.cache_hierarchy.ruby_system.RequestType.IFETCH.latency_hist_seqr |      526281     99.93%     99.93% |         333      0.06%    100.00% |           6      0.00%    100.00% |           0      0.00%    100.00% |           0      0.00%    100.00% |           0      0.00%    100.00% |           0      0.00%    100.00% |           0      0.00%    100.00% |           0      0.00%    100.00% |           4      0.00%    100.00% (Unspecified)
board.cache_hierarchy.ruby_system.RequestType.IFETCH.latency_hist_seqr::total       526624                       (Unspecified)
board.cache_hierarchy.ruby_system.RequestType.IFETCH.hit_latency_hist_seqr::bucket_size            1                       (Unspecified)
board.cache_hierarchy.ruby_system.RequestType.IFETCH.hit_latency_hist_seqr::max_bucket            9                       (Unspecified)
board.cache_hierarchy.ruby_system.RequestType.IFETCH.hit_latency_hist_seqr::samples       526179                       (Unspecified)
board.cache_hierarchy.ruby_system.RequestType.IFETCH.hit_latency_hist_seqr::mean            1                       (Unspecified)
board.cache_hierarchy.ruby_system.RequestType.IFETCH.hit_latency_hist_seqr::gmean            1                       (Unspecified)
board.cache_hierarchy.ruby_system.RequestType.IFETCH.hit_latency_hist_seqr |           0      0.00%      0.00% |      526179    100.00%    100.00% |           0      0.00%    100.00% |           0      0.00%    100.00% |           0      0.00%    100.00% |           0      0.00%    100.00% |           0      0.00%    100.00% |           0      0.00%    100.00% |           0      0.00%    100.00% |           0      0.00%    100.00% (Unspecified)
board.cache_hierarchy.ruby_system.RequestType.IFETCH.hit_latency_hist_seqr::total       526179                       (Unspecified)
board.cache_hierarchy.ruby_system.RequestType.IFETCH.miss_latency_hist_seqr::bucket_size          128                       (Unspecified)
board.cache_hierarchy.ruby_system.RequestType.IFETCH.miss_latency_hist_seqr::max_bucket         1279                       (Unspecified)
board.cache_hierarchy.ruby_system.RequestType.IFETCH.miss_latency_hist_seqr::samples          445                       (Unspecified)
board.cache_hierarchy.ruby_system.RequestType.IFETCH.miss_latency_hist_seqr::mean   151.465169                       (Unspecified)
board.cache_hierarchy.ruby_system.RequestType.IFETCH.miss_latency_hist_seqr::gmean   109.357122                       (Unspecified)
board.cache_hierarchy.ruby_system.RequestType.IFETCH.miss_latency_hist_seqr::stdev   124.098776                       (Unspecified)
board.cache_hierarchy.ruby_system.RequestType.IFETCH.miss_latency_hist_seqr |         102     22.92%     22.92% |         333     74.83%     97.75% |           6      1.35%     99.10% |           0      0.00%     99.10% |           0      0.00%     99.10% |           0      0.00%     99.10% |           0      0.00%     99.10% |           0      0.00%     99.10% |           0      0.00%     99.10% |           4      0.90%    100.00% (Unspecified)
board.cache_hierarchy.ruby_system.RequestType.IFETCH.miss_latency_hist_seqr::total          445                       (Unspecified)
board.cache_hierarchy.ruby_system.RequestType.RMW_Read.latency_hist_seqr::bucket_size           32                       (Unspecified)
board.cache_hierarchy.ruby_system.RequestType.RMW_Read.latency_hist_seqr::max_bucket          319                       (Unspecified)
board.cache_hierarchy.ruby_system.RequestType.RMW_Read.latency_hist_seqr::samples        32798                       (Unspecified)
board.cache_hierarchy.ruby_system.RequestType.RMW_Read.latency_hist_seqr::mean     1.019208                       (Unspecified)
board.cache_hierarchy.ruby_system.RequestType.RMW_Read.latency_hist_seqr::gmean     1.000634                       (Unspecified)
board.cache_hierarchy.ruby_system.RequestType.RMW_Read.latency_hist_seqr::stdev     1.923974                       (Unspecified)
board.cache_hierarchy.ruby_system.RequestType.RMW_Read.latency_hist_seqr |       32794     99.99%     99.99% |           1      0.00%     99.99% |           0      0.00%     99.99% |           0      0.00%     99.99% |           0      0.00%     99.99% |           2      0.01%    100.00% |           0      0.00%    100.00% |           1      0.00%    100.00% |           0      0.00%    100.00% |           0      0.00%    100.00% (Unspecified)
board.cache_hierarchy.ruby_system.RequestType.RMW_Read.latency_hist_seqr::total        32798                       (Unspecified)
board.cache_hierarchy.ruby_system.RequestType.RMW_Read.hit_latency_hist_seqr::bucket_size            1                       (Unspecified)
board.cache_hierarchy.ruby_system.RequestType.RMW_Read.hit_latency_hist_seqr::max_bucket            9                       (Unspecified)
board.cache_hierarchy.ruby_system.RequestType.RMW_Read.hit_latency_hist_seqr::samples        32794                       (Unspecified)
board.cache_hierarchy.ruby_system.RequestType.RMW_Read.hit_latency_hist_seqr::mean     1.000061                       (Unspecified)
board.cache_hierarchy.ruby_system.RequestType.RMW_Read.hit_latency_hist_seqr::gmean     1.000042                       (Unspecified)
board.cache_hierarchy.ruby_system.RequestType.RMW_Read.hit_latency_hist_seqr::stdev     0.007809                       (Unspecified)
board.cache_hierarchy.ruby_system.RequestType.RMW_Read.hit_latency_hist_seqr |           0      0.00%      0.00% |       32792     99.99%     99.99% |           2      0.01%    100.00% |           0      0.00%    100.00% |           0      0.00%    100.00% |           0      0.00%    100.00% |           0      0.00%    100.00% |           0      0.00%    100.00% |           0      0.00%    100.00% |           0      0.00%    100.00% (Unspecified)
board.cache_hierarchy.ruby_system.RequestType.RMW_Read.hit_latency_hist_seqr::total        32794                       (Unspecified)
board.cache_hierarchy.ruby_system.RequestType.RMW_Read.miss_latency_hist_seqr::bucket_size           32                       (Unspecified)
board.cache_hierarchy.ruby_system.RequestType.RMW_Read.miss_latency_hist_seqr::max_bucket          319                       (Unspecified)
board.cache_hierarchy.ruby_system.RequestType.RMW_Read.miss_latency_hist_seqr::samples            4                       (Unspecified)
board.cache_hierarchy.ruby_system.RequestType.RMW_Read.miss_latency_hist_seqr::mean          158                       (Unspecified)
board.cache_hierarchy.ruby_system.RequestType.RMW_Read.miss_latency_hist_seqr::gmean   127.858991                       (Unspecified)
board.cache_hierarchy.ruby_system.RequestType.RMW_Read.miss_latency_hist_seqr::stdev    87.212384                       (Unspecified)
board.cache_hierarchy.ruby_system.RequestType.RMW_Read.miss_latency_hist_seqr |           0      0.00%      0.00% |           1     25.00%     25.00% |           0      0.00%     25.00% |           0      0.00%     25.00% |           0      0.00%     25.00% |           2     50.00%     75.00% |           0      0.00%     75.00% |           1     25.00%    100.00% |           0      0.00%    100.00% |           0      0.00%    100.00% (Unspecified)
board.cache_hierarchy.ruby_system.RequestType.RMW_Read.miss_latency_hist_seqr::total            4                       (Unspecified)
board.cache_hierarchy.ruby_system.RequestType.Locked_RMW_Read.latency_hist_seqr::bucket_size            8                       (Unspecified)
board.cache_hierarchy.ruby_system.RequestType.Locked_RMW_Read.latency_hist_seqr::max_bucket           79                       (Unspecified)
board.cache_hierarchy.ruby_system.RequestType.Locked_RMW_Read.latency_hist_seqr::samples        32811                       (Unspecified)
board.cache_hierarchy.ruby_system.RequestType.Locked_RMW_Read.latency_hist_seqr::mean     1.011886                       (Unspecified)
board.cache_hierarchy.ruby_system.RequestType.Locked_RMW_Read.latency_hist_seqr::gmean     1.001262                       (Unspecified)
board.cache_hierarchy.ruby_system.RequestType.Locked_RMW_Read.latency_hist_seqr::stdev     0.646170                       (Unspecified)
board.cache_hierarchy.ruby_system.RequestType.Locked_RMW_Read.latency_hist_seqr |       32799     99.96%     99.96% |           2      0.01%     99.97% |           0      0.00%     99.97% |           0      0.00%     99.97% |           9      0.03%    100.00% |           1      0.00%    100.00% |           0      0.00%    100.00% |           0      0.00%    100.00% |           0      0.00%    100.00% |           0      0.00%    100.00% (Unspecified)
board.cache_hierarchy.ruby_system.RequestType.Locked_RMW_Read.latency_hist_seqr::total        32811                       (Unspecified)
board.cache_hierarchy.ruby_system.RequestType.Locked_RMW_Read.hit_latency_hist_seqr::bucket_size            1                       (Unspecified)
board.cache_hierarchy.ruby_system.RequestType.Locked_RMW_Read.hit_latency_hist_seqr::max_bucket            9                       (Unspecified)
board.cache_hierarchy.ruby_system.RequestType.Locked_RMW_Read.hit_latency_hist_seqr::samples        32799                       (Unspecified)
board.cache_hierarchy.ruby_system.RequestType.Locked_RMW_Read.hit_latency_hist_seqr::mean            1                       (Unspecified)
board.cache_hierarchy.ruby_system.RequestType.Locked_RMW_Read.hit_latency_hist_seqr::gmean            1                       (Unspecified)
board.cache_hierarchy.ruby_system.RequestType.Locked_RMW_Read.hit_latency_hist_seqr |           0      0.00%      0.00% |       32799    100.00%    100.00% |           0      0.00%    100.00% |           0      0.00%    100.00% |           0      0.00%    100.00% |           0      0.00%    100.00% |           0      0.00%    100.00% |           0      0.00%    100.00% |           0      0.00%    100.00% |           0      0.00%    100.00% (Unspecified)
board.cache_hierarchy.ruby_system.RequestType.Locked_RMW_Read.hit_latency_hist_seqr::total        32799                       (Unspecified)
board.cache_hierarchy.ruby_system.RequestType.Locked_RMW_Read.miss_latency_hist_seqr::bucket_size            8                       (Unspecified)
board.cache_hierarchy.ruby_system.RequestType.Locked_RMW_Read.miss_latency_hist_seqr::max_bucket           79                       (Unspecified)
board.cache_hierarchy.ruby_system.RequestType.Locked_RMW_Read.miss_latency_hist_seqr::samples           12                       (Unspecified)
board.cache_hierarchy.ruby_system.RequestType.Locked_RMW_Read.miss_latency_hist_seqr::mean    33.500000                       (Unspecified)
board.cache_hierarchy.ruby_system.RequestType.Locked_RMW_Read.miss_latency_hist_seqr::gmean    31.480914                       (Unspecified)
board.cache_hierarchy.ruby_system.RequestType.Locked_RMW_Read.miss_latency_hist_seqr::stdev     9.671890                       (Unspecified)
board.cache_hierarchy.ruby_system.RequestType.Locked_RMW_Read.miss_latency_hist_seqr |           0      0.00%      0.00% |           2     16.67%     16.67% |           0      0.00%     16.67% |           0      0.00%     16.67% |           9     75.00%     91.67% |           1      8.33%    100.00% |           0      0.00%    100.00% |           0      0.00%    100.00% |           0      0.00%    100.00% |           0      0.00%    100.00% (Unspecified)
board.cache_hierarchy.ruby_system.RequestType.Locked_RMW_Read.miss_latency_hist_seqr::total           12                       (Unspecified)
board.cache_hierarchy.ruby_system.RequestType.Locked_RMW_Write.latency_hist_seqr::bucket_size            1                       (Unspecified)
board.cache_hierarchy.ruby_system.RequestType.Locked_RMW_Write.latency_hist_seqr::max_bucket            9                       (Unspecified)
board.cache_hierarchy.ruby_system.RequestType.Locked_RMW_Write.latency_hist_seqr::samples        32811                       (Unspecified)
board.cache_hierarchy.ruby_system.RequestType.Locked_RMW_Write.latency_hist_seqr::mean            1                       (Unspecified)
board.cache_hierarchy.ruby_system.RequestType.Locked_RMW_Write.latency_hist_seqr::gmean            1                       (Unspecified)
board.cache_hierarchy.ruby_system.RequestType.Locked_RMW_Write.latency_hist_seqr |           0      0.00%      0.00% |       32811    100.00%    100.00% |           0      0.00%    100.00% |           0      0.00%    100.00% |           0      0.00%    100.00% |           0      0.00%    100.00% |           0      0.00%    100.00% |           0      0.00%    100.00% |           0      0.00%    100.00% |           0      0.00%    100.00% (Unspecified)
board.cache_hierarchy.ruby_system.RequestType.Locked_RMW_Write.latency_hist_seqr::total        32811                       (Unspecified)
board.cache_hierarchy.ruby_system.RequestType.Locked_RMW_Write.hit_latency_hist_seqr::bucket_size            1                       (Unspecified)
board.cache_hierarchy.ruby_system.RequestType.Locked_RMW_Write.hit_latency_hist_seqr::max_bucket            9                       (Unspecified)
board.cache_hierarchy.ruby_system.RequestType.Locked_RMW_Write.hit_latency_hist_seqr::samples        32811                       (Unspecified)
board.cache_hierarchy.ruby_system.RequestType.Locked_RMW_Write.hit_latency_hist_seqr::mean            1                       (Unspecified)
board.cache_hierarchy.ruby_system.RequestType.Locked_RMW_Write.hit_latency_hist_seqr::gmean            1                       (Unspecified)
board.cache_hierarchy.ruby_system.RequestType.Locked_RMW_Write.hit_latency_hist_seqr |           0      0.00%      0.00% |       32811    100.00%    100.00% |           0      0.00%    100.00% |           0      0.00%    100.00% |           0      0.00%    100.00% |           0      0.00%    100.00% |           0      0.00%    100.00% |           0      0.00%    100.00% |           0      0.00%    100.00% |           0      0.00%    100.00% (Unspecified)
board.cache_hierarchy.ruby_system.RequestType.Locked_RMW_Write.hit_latency_hist_seqr::total        32811                       (Unspecified)
board.cache_hierarchy.ruby_system.directory_controllers.power_state.pwrStateResidencyTicks::UNDEFINED   1094066172                       # Cumulative time (in ticks) in various power states (Tick)
board.cache_hierarchy.ruby_system.directory_controllers.requestToDir.m_msg_count          446                       # Number of messages passed the buffer (Count)
board.cache_hierarchy.ruby_system.directory_controllers.requestToDir.m_buf_msgs     0.000177                       # Average number of messages in buffer ((Count/Tick))
board.cache_hierarchy.ruby_system.directory_controllers.requestToMemory.m_msg_count          446                       # Number of messages passed the buffer (Count)
board.cache_hierarchy.ruby_system.directory_controllers.requestToMemory.m_buf_msgs     0.000178                       # Average number of messages in buffer ((Count/Tick))
board.cache_hierarchy.ruby_system.directory_controllers.requestToMemory.m_stall_time          333                       # Total number of ticks messages were stalled in this buffer (Tick)
board.cache_hierarchy.ruby_system.directory_controllers.requestToMemory.m_avg_stall_time     0.746637                       # Average stall ticks per message ((Tick/Count))
board.cache_hierarchy.ruby_system.directory_controllers.responseFromDir.m_msg_count          446                       # Number of messages passed the buffer (Count)
board.cache_hierarchy.ruby_system.directory_controllers.responseFromDir.m_buf_msgs     0.000177                       # Average number of messages in buffer ((Count/Tick))
board.cache_hierarchy.ruby_system.directory_controllers.responseFromMemory.m_msg_count          446                       # Number of messages passed the buffer (Count)
board.cache_hierarchy.ruby_system.directory_controllers.responseFromMemory.m_buf_msgs     0.000262                       # Average number of messages in buffer ((Count/Tick))
board.cache_hierarchy.ruby_system.l1_controllers0.fullyBusyCycles           14                       # cycles for which number of transistions == max transitions (Unspecified)
board.cache_hierarchy.ruby_system.l1_controllers0.delayHistogram::samples          861                       # delay_histogram (Unspecified)
board.cache_hierarchy.ruby_system.l1_controllers0.delayHistogram::mean     0.127758                       # delay_histogram (Unspecified)
board.cache_hierarchy.ruby_system.l1_controllers0.delayHistogram::stdev     0.933826                       # delay_histogram (Unspecified)
board.cache_hierarchy.ruby_system.l1_controllers0.delayHistogram::0          843     97.91%     97.91% # delay_histogram (Unspecified)
board.cache_hierarchy.ruby_system.l1_controllers0.delayHistogram::2            3      0.35%     98.26% # delay_histogram (Unspecified)
board.cache_hierarchy.ruby_system.l1_controllers0.delayHistogram::4            2      0.23%     98.49% # delay_histogram (Unspecified)
board.cache_hierarchy.ruby_system.l1_controllers0.delayHistogram::6            4      0.46%     98.95% # delay_histogram (Unspecified)
board.cache_hierarchy.ruby_system.l1_controllers0.delayHistogram::8            9      1.05%    100.00% # delay_histogram (Unspecified)
board.cache_hierarchy.ruby_system.l1_controllers0.delayHistogram::total          861                       # delay_histogram (Unspecified)
board.cache_hierarchy.ruby_system.l1_controllers0.L1Dcache.m_demand_hits         2418                       # Number of cache demand hits (Unspecified)
board.cache_hierarchy.ruby_system.l1_controllers0.L1Dcache.m_demand_misses          101                       # Number of cache demand misses (Unspecified)
board.cache_hierarchy.ruby_system.l1_controllers0.L1Dcache.m_demand_accesses         2519                       # Number of cache demand accesses (Unspecified)
board.cache_hierarchy.ruby_system.l1_controllers0.L1Icache.m_demand_hits         1289                       # Number of cache demand hits (Unspecified)
board.cache_hierarchy.ruby_system.l1_controllers0.L1Icache.m_demand_misses          257                       # Number of cache demand misses (Unspecified)
board.cache_hierarchy.ruby_system.l1_controllers0.L1Icache.m_demand_accesses         1546                       # Number of cache demand accesses (Unspecified)
board.cache_hierarchy.ruby_system.l1_controllers0.mandatoryQueue.m_msg_count         4065                       # Number of messages passed the buffer (Count)
board.cache_hierarchy.ruby_system.l1_controllers0.mandatoryQueue.m_buf_msgs     0.001615                       # Average number of messages in buffer ((Count/Tick))
board.cache_hierarchy.ruby_system.l1_controllers0.mandatoryQueue.m_stall_time          999                       # Total number of ticks messages were stalled in this buffer (Tick)
board.cache_hierarchy.ruby_system.l1_controllers0.mandatoryQueue.m_avg_stall_time     0.245756                       # Average stall ticks per message ((Tick/Count))
board.cache_hierarchy.ruby_system.l1_controllers0.power_state.pwrStateResidencyTicks::UNDEFINED   1094066172                       # Cumulative time (in ticks) in various power states (Tick)
board.cache_hierarchy.ruby_system.l1_controllers0.prefetcher.RubyPrefetcher.numMissObserved            0                       # Number of misses observed (Unspecified)
board.cache_hierarchy.ruby_system.l1_controllers0.prefetcher.RubyPrefetcher.numAllocatedStreams            0                       # Number of streams allocated for prefetching (Unspecified)
board.cache_hierarchy.ruby_system.l1_controllers0.prefetcher.RubyPrefetcher.numPrefetchRequested            0                       # Number of prefetch requests made (Unspecified)
board.cache_hierarchy.ruby_system.l1_controllers0.prefetcher.RubyPrefetcher.numHits            0                       # Number of prefetched blocks accessed (for the first time) (Unspecified)
board.cache_hierarchy.ruby_system.l1_controllers0.prefetcher.RubyPrefetcher.numPartialHits            0                       # Number of misses observed for a block being prefetched (Unspecified)
board.cache_hierarchy.ruby_system.l1_controllers0.prefetcher.RubyPrefetcher.numPagesCrossed            0                       # Number of prefetches across pages (Unspecified)
board.cache_hierarchy.ruby_system.l1_controllers0.prefetcher.RubyPrefetcher.numMissedPrefetchedBlocks            0                       # Number of misses for blocks that were prefetched, yet missed (Unspecified)
board.cache_hierarchy.ruby_system.l1_controllers0.requestFromL1Cache.m_msg_count          450                       # Number of messages passed the buffer (Count)
board.cache_hierarchy.ruby_system.l1_controllers0.requestFromL1Cache.m_buf_msgs     0.000357                       # Average number of messages in buffer ((Count/Tick))
board.cache_hierarchy.ruby_system.l1_controllers0.requestToL1Cache.m_msg_count          408                       # Number of messages passed the buffer (Count)
board.cache_hierarchy.ruby_system.l1_controllers0.requestToL1Cache.m_buf_msgs     0.000162                       # Average number of messages in buffer ((Count/Tick))
board.cache_hierarchy.ruby_system.l1_controllers0.responseFromL1Cache.m_msg_count          803                       # Number of messages passed the buffer (Count)
board.cache_hierarchy.ruby_system.l1_controllers0.responseFromL1Cache.m_buf_msgs     0.000638                       # Average number of messages in buffer ((Count/Tick))
board.cache_hierarchy.ruby_system.l1_controllers0.responseToL1Cache.m_msg_count          453                       # Number of messages passed the buffer (Count)
board.cache_hierarchy.ruby_system.l1_controllers0.responseToL1Cache.m_buf_msgs     0.000180                       # Average number of messages in buffer ((Count/Tick))
board.cache_hierarchy.ruby_system.l1_controllers0.sequencer.power_state.pwrStateResidencyTicks::UNDEFINED   1094066172                       # Cumulative time (in ticks) in various power states (Tick)
board.cache_hierarchy.ruby_system.l1_controllers0.unblockFromL1Cache.m_msg_count          100                       # Number of messages passed the buffer (Count)
board.cache_hierarchy.ruby_system.l1_controllers0.unblockFromL1Cache.m_buf_msgs     0.000040                       # Average number of messages in buffer ((Count/Tick))
board.cache_hierarchy.ruby_system.l1_controllers1.fullyBusyCycles            3                       # cycles for which number of transistions == max transitions (Unspecified)
board.cache_hierarchy.ruby_system.l1_controllers1.delayHistogram::samples         3978                       # delay_histogram (Unspecified)
board.cache_hierarchy.ruby_system.l1_controllers1.delayHistogram::mean     0.049774                       # delay_histogram (Unspecified)
board.cache_hierarchy.ruby_system.l1_controllers1.delayHistogram::stdev     0.858355                       # delay_histogram (Unspecified)
board.cache_hierarchy.ruby_system.l1_controllers1.delayHistogram::0-3         3960     99.55%     99.55% # delay_histogram (Unspecified)
board.cache_hierarchy.ruby_system.l1_controllers1.delayHistogram::4-7            7      0.18%     99.72% # delay_histogram (Unspecified)
board.cache_hierarchy.ruby_system.l1_controllers1.delayHistogram::8-11            6      0.15%     99.87% # delay_histogram (Unspecified)
board.cache_hierarchy.ruby_system.l1_controllers1.delayHistogram::12-15            1      0.03%     99.90% # delay_histogram (Unspecified)
board.cache_hierarchy.ruby_system.l1_controllers1.delayHistogram::16-19            3      0.08%     99.97% # delay_histogram (Unspecified)
board.cache_hierarchy.ruby_system.l1_controllers1.delayHistogram::32-35            1      0.03%    100.00% # delay_histogram (Unspecified)
board.cache_hierarchy.ruby_system.l1_controllers1.delayHistogram::total         3978                       # delay_histogram (Unspecified)
board.cache_hierarchy.ruby_system.l1_controllers1.L1Dcache.m_demand_hits       556227                       # Number of cache demand hits (Unspecified)
board.cache_hierarchy.ruby_system.l1_controllers1.L1Dcache.m_demand_misses         2160                       # Number of cache demand misses (Unspecified)
board.cache_hierarchy.ruby_system.l1_controllers1.L1Dcache.m_demand_accesses       558387                       # Number of cache demand accesses (Unspecified)
board.cache_hierarchy.ruby_system.l1_controllers1.L1Icache.m_demand_hits       524890                       # Number of cache demand hits (Unspecified)
board.cache_hierarchy.ruby_system.l1_controllers1.L1Icache.m_demand_misses          188                       # Number of cache demand misses (Unspecified)
board.cache_hierarchy.ruby_system.l1_controllers1.L1Icache.m_demand_accesses       525078                       # Number of cache demand accesses (Unspecified)
board.cache_hierarchy.ruby_system.l1_controllers1.mandatoryQueue.m_msg_count      1083465                       # Number of messages passed the buffer (Count)
board.cache_hierarchy.ruby_system.l1_controllers1.mandatoryQueue.m_buf_msgs     0.430248                       # Average number of messages in buffer ((Count/Tick))
board.cache_hierarchy.ruby_system.l1_controllers1.power_state.pwrStateResidencyTicks::UNDEFINED   1094066172                       # Cumulative time (in ticks) in various power states (Tick)
board.cache_hierarchy.ruby_system.l1_controllers1.prefetcher.RubyPrefetcher.numMissObserved            0                       # Number of misses observed (Unspecified)
board.cache_hierarchy.ruby_system.l1_controllers1.prefetcher.RubyPrefetcher.numAllocatedStreams            0                       # Number of streams allocated for prefetching (Unspecified)
board.cache_hierarchy.ruby_system.l1_controllers1.prefetcher.RubyPrefetcher.numPrefetchRequested            0                       # Number of prefetch requests made (Unspecified)
board.cache_hierarchy.ruby_system.l1_controllers1.prefetcher.RubyPrefetcher.numHits            0                       # Number of prefetched blocks accessed (for the first time) (Unspecified)
board.cache_hierarchy.ruby_system.l1_controllers1.prefetcher.RubyPrefetcher.numPartialHits            0                       # Number of misses observed for a block being prefetched (Unspecified)
board.cache_hierarchy.ruby_system.l1_controllers1.prefetcher.RubyPrefetcher.numPagesCrossed            0                       # Number of prefetches across pages (Unspecified)
board.cache_hierarchy.ruby_system.l1_controllers1.prefetcher.RubyPrefetcher.numMissedPrefetchedBlocks            0                       # Number of misses for blocks that were prefetched, yet missed (Unspecified)
board.cache_hierarchy.ruby_system.l1_controllers1.requestFromL1Cache.m_msg_count         3962                       # Number of messages passed the buffer (Count)
board.cache_hierarchy.ruby_system.l1_controllers1.requestFromL1Cache.m_buf_msgs     0.003147                       # Average number of messages in buffer ((Count/Tick))
board.cache_hierarchy.ruby_system.l1_controllers1.requestToL1Cache.m_msg_count            7                       # Number of messages passed the buffer (Count)
board.cache_hierarchy.ruby_system.l1_controllers1.requestToL1Cache.m_buf_msgs     0.000003                       # Average number of messages in buffer ((Count/Tick))
board.cache_hierarchy.ruby_system.l1_controllers1.responseFromL1Cache.m_msg_count           10                       # Number of messages passed the buffer (Count)
board.cache_hierarchy.ruby_system.l1_controllers1.responseFromL1Cache.m_buf_msgs     0.000008                       # Average number of messages in buffer ((Count/Tick))
board.cache_hierarchy.ruby_system.l1_controllers1.responseToL1Cache.m_msg_count         3971                       # Number of messages passed the buffer (Count)
board.cache_hierarchy.ruby_system.l1_controllers1.responseToL1Cache.m_buf_msgs     0.001577                       # Average number of messages in buffer ((Count/Tick))
board.cache_hierarchy.ruby_system.l1_controllers1.sequencer.power_state.pwrStateResidencyTicks::UNDEFINED   1094066172                       # Cumulative time (in ticks) in various power states (Tick)
board.cache_hierarchy.ruby_system.l1_controllers1.unblockFromL1Cache.m_msg_count         2158                       # Number of messages passed the buffer (Count)
board.cache_hierarchy.ruby_system.l1_controllers1.unblockFromL1Cache.m_buf_msgs     0.000857                       # Average number of messages in buffer ((Count/Tick))
board.cache_hierarchy.ruby_system.l2_controllers.delayHistogram::samples         7514                       # delay_histogram (Unspecified)
board.cache_hierarchy.ruby_system.l2_controllers.delayHistogram::mean     0.603141                       # delay_histogram (Unspecified)
board.cache_hierarchy.ruby_system.l2_controllers.delayHistogram::stdev     2.281021                       # delay_histogram (Unspecified)
board.cache_hierarchy.ruby_system.l2_controllers.delayHistogram::0-3         6980     92.89%     92.89% # delay_histogram (Unspecified)
board.cache_hierarchy.ruby_system.l2_controllers.delayHistogram::4-7           17      0.23%     93.12% # delay_histogram (Unspecified)
board.cache_hierarchy.ruby_system.l2_controllers.delayHistogram::8-11          492      6.55%     99.67% # delay_histogram (Unspecified)
board.cache_hierarchy.ruby_system.l2_controllers.delayHistogram::12-15            8      0.11%     99.77% # delay_histogram (Unspecified)
board.cache_hierarchy.ruby_system.l2_controllers.delayHistogram::16-19            8      0.11%     99.88% # delay_histogram (Unspecified)
board.cache_hierarchy.ruby_system.l2_controllers.delayHistogram::20-23            2      0.03%     99.91% # delay_histogram (Unspecified)
board.cache_hierarchy.ruby_system.l2_controllers.delayHistogram::24-27            6      0.08%     99.99% # delay_histogram (Unspecified)
board.cache_hierarchy.ruby_system.l2_controllers.delayHistogram::32-35            1      0.01%    100.00% # delay_histogram (Unspecified)
board.cache_hierarchy.ruby_system.l2_controllers.delayHistogram::total         7514                       # delay_histogram (Unspecified)
board.cache_hierarchy.ruby_system.l2_controllers.DirRequestFromL2Cache.m_msg_count          446                       # Number of messages passed the buffer (Count)
board.cache_hierarchy.ruby_system.l2_controllers.DirRequestFromL2Cache.m_buf_msgs     0.000354                       # Average number of messages in buffer ((Count/Tick))
board.cache_hierarchy.ruby_system.l2_controllers.L1RequestFromL2Cache.m_msg_count          415                       # Number of messages passed the buffer (Count)
board.cache_hierarchy.ruby_system.l2_controllers.L1RequestFromL2Cache.m_buf_msgs     0.000165                       # Average number of messages in buffer ((Count/Tick))
board.cache_hierarchy.ruby_system.l2_controllers.L1RequestToL2Cache.m_msg_count         4412                       # Number of messages passed the buffer (Count)
board.cache_hierarchy.ruby_system.l2_controllers.L1RequestToL2Cache.m_buf_msgs     0.001752                       # Average number of messages in buffer ((Count/Tick))
board.cache_hierarchy.ruby_system.l2_controllers.L2cache.m_demand_hits         1855                       # Number of cache demand hits (Unspecified)
board.cache_hierarchy.ruby_system.l2_controllers.L2cache.m_demand_misses          851                       # Number of cache demand misses (Unspecified)
board.cache_hierarchy.ruby_system.l2_controllers.L2cache.m_demand_accesses         2706                       # Number of cache demand accesses (Unspecified)
board.cache_hierarchy.ruby_system.l2_controllers.power_state.pwrStateResidencyTicks::UNDEFINED   1094066172                       # Cumulative time (in ticks) in various power states (Tick)
board.cache_hierarchy.ruby_system.l2_controllers.responseFromL2Cache.m_msg_count         4007                       # Number of messages passed the buffer (Count)
board.cache_hierarchy.ruby_system.l2_controllers.responseFromL2Cache.m_buf_msgs     0.002323                       # Average number of messages in buffer ((Count/Tick))
board.cache_hierarchy.ruby_system.l2_controllers.responseToL2Cache.m_msg_count          844                       # Number of messages passed the buffer (Count)
board.cache_hierarchy.ruby_system.l2_controllers.responseToL2Cache.m_buf_msgs     0.000335                       # Average number of messages in buffer ((Count/Tick))
board.cache_hierarchy.ruby_system.l2_controllers.unblockToL2Cache.m_msg_count         2258                       # Number of messages passed the buffer (Count)
board.cache_hierarchy.ruby_system.l2_controllers.unblockToL2Cache.m_buf_msgs     0.000897                       # Average number of messages in buffer ((Count/Tick))
board.cache_hierarchy.ruby_system.network.msg_count.Control        21370                       (Unspecified)
board.cache_hierarchy.ruby_system.network.msg_byte.Control       170960                       (Unspecified)
board.cache_hierarchy.ruby_system.network.msg_count.Request_Control          830                       (Unspecified)
board.cache_hierarchy.ruby_system.network.msg_byte.Request_Control         6640                       (Unspecified)
board.cache_hierarchy.ruby_system.network.msg_count.Response_Data        22545                       (Unspecified)
board.cache_hierarchy.ruby_system.network.msg_byte.Response_Data      1623240                       (Unspecified)
board.cache_hierarchy.ruby_system.network.msg_count.Response_Control        17408                       (Unspecified)
board.cache_hierarchy.ruby_system.network.msg_byte.Response_Control       139264                       (Unspecified)
board.cache_hierarchy.ruby_system.network.msg_count.Writeback_Data         4054                       (Unspecified)
board.cache_hierarchy.ruby_system.network.msg_byte.Writeback_Data       291888                       (Unspecified)
board.cache_hierarchy.ruby_system.network.msg_count.Writeback_Control         3556                       (Unspecified)
board.cache_hierarchy.ruby_system.network.msg_byte.Writeback_Control        28448                       (Unspecified)
board.cache_hierarchy.ruby_system.network.l1_l2_link0.buffers0.m_msg_count         3962                       # Number of messages passed the buffer (Count)
board.cache_hierarchy.ruby_system.network.l1_l2_link0.buffers0.m_buf_msgs     0.001573                       # Average number of messages in buffer ((Count/Tick))
board.cache_hierarchy.ruby_system.network.l1_l2_link0.buffers1.m_msg_count           10                       # Number of messages passed the buffer (Count)
board.cache_hierarchy.ruby_system.network.l1_l2_link0.buffers1.m_buf_msgs     0.000004                       # Average number of messages in buffer ((Count/Tick))
board.cache_hierarchy.ruby_system.network.l1_l2_link0.buffers2.m_msg_count         2158                       # Number of messages passed the buffer (Count)
board.cache_hierarchy.ruby_system.network.l1_l2_link0.buffers2.m_buf_msgs     0.000857                       # Average number of messages in buffer ((Count/Tick))
board.cache_hierarchy.ruby_system.network.l1_switch_0.percent_links_utilized     0.287622                       (Unspecified)
board.cache_hierarchy.ruby_system.network.l1_switch_0.msg_count.Control::0         2348                       (Unspecified)
board.cache_hierarchy.ruby_system.network.l1_switch_0.msg_bytes.Control::0        18784                       (Unspecified)
board.cache_hierarchy.ruby_system.network.l1_switch_0.msg_count.Request_Control::2            7                       (Unspecified)
board.cache_hierarchy.ruby_system.network.l1_switch_0.msg_bytes.Request_Control::2           56                       (Unspecified)
board.cache_hierarchy.ruby_system.network.l1_switch_0.msg_count.Response_Data::1         2346                       (Unspecified)
board.cache_hierarchy.ruby_system.network.l1_switch_0.msg_bytes.Response_Data::1       168912                       (Unspecified)
board.cache_hierarchy.ruby_system.network.l1_switch_0.msg_count.Response_Control::1         1635                       (Unspecified)
board.cache_hierarchy.ruby_system.network.l1_switch_0.msg_count.Response_Control::2         2158                       (Unspecified)
board.cache_hierarchy.ruby_system.network.l1_switch_0.msg_bytes.Response_Control::1        13080                       (Unspecified)
board.cache_hierarchy.ruby_system.network.l1_switch_0.msg_bytes.Response_Control::2        17264                       (Unspecified)
board.cache_hierarchy.ruby_system.network.l1_switch_0.msg_count.Writeback_Data::0           12                       (Unspecified)
board.cache_hierarchy.ruby_system.network.l1_switch_0.msg_bytes.Writeback_Data::0          864                       (Unspecified)
board.cache_hierarchy.ruby_system.network.l1_switch_0.msg_count.Writeback_Control::0         1602                       (Unspecified)
board.cache_hierarchy.ruby_system.network.l1_switch_0.msg_bytes.Writeback_Control::0        12816                       (Unspecified)
board.cache_hierarchy.ruby_system.network.l1_switch_0.port_buffers1.m_msg_count         3971                       # Number of messages passed the buffer (Count)
board.cache_hierarchy.ruby_system.network.l1_switch_0.port_buffers1.m_buf_msgs     0.001209                       # Average number of messages in buffer ((Count/Tick))
board.cache_hierarchy.ruby_system.network.l1_switch_0.port_buffers2.m_msg_count            7                       # Number of messages passed the buffer (Count)
board.cache_hierarchy.ruby_system.network.l1_switch_0.port_buffers2.m_buf_msgs     0.000002                       # Average number of messages in buffer ((Count/Tick))
board.cache_hierarchy.ruby_system.network.l1_switch_0.port_buffers5.m_msg_count         3962                       # Number of messages passed the buffer (Count)
board.cache_hierarchy.ruby_system.network.l1_switch_0.port_buffers5.m_buf_msgs     0.001222                       # Average number of messages in buffer ((Count/Tick))
board.cache_hierarchy.ruby_system.network.l1_switch_0.port_buffers5.m_stall_time        17316                       # Total number of ticks messages were stalled in this buffer (Tick)
board.cache_hierarchy.ruby_system.network.l1_switch_0.port_buffers5.m_avg_stall_time     4.370520                       # Average stall ticks per message ((Tick/Count))
board.cache_hierarchy.ruby_system.network.l1_switch_0.port_buffers6.m_msg_count           10                       # Number of messages passed the buffer (Count)
board.cache_hierarchy.ruby_system.network.l1_switch_0.port_buffers6.m_buf_msgs     0.000007                       # Average number of messages in buffer ((Count/Tick))
board.cache_hierarchy.ruby_system.network.l1_switch_0.port_buffers6.m_stall_time         3996                       # Total number of ticks messages were stalled in this buffer (Tick)
board.cache_hierarchy.ruby_system.network.l1_switch_0.port_buffers6.m_avg_stall_time   399.600000                       # Average stall ticks per message ((Tick/Count))
board.cache_hierarchy.ruby_system.network.l1_switch_0.port_buffers7.m_msg_count         2158                       # Number of messages passed the buffer (Count)
board.cache_hierarchy.ruby_system.network.l1_switch_0.port_buffers7.m_buf_msgs     0.000657                       # Average number of messages in buffer ((Count/Tick))
board.cache_hierarchy.ruby_system.network.l1_switch_0.power_state.pwrStateResidencyTicks::UNDEFINED   1094066172                       # Cumulative time (in ticks) in various power states (Tick)
board.cache_hierarchy.ruby_system.network.l1_switch_0.throttle00.acc_link_utilization        11345                       # Accumulated link utilization (Count)
board.cache_hierarchy.ruby_system.network.l1_switch_0.throttle00.link_utilization     0.450514                       # Average link utilization (Ratio)
board.cache_hierarchy.ruby_system.network.l1_switch_0.throttle00.total_msg_count         3978                       # Total number of messages forwarded by this switch (Count)
board.cache_hierarchy.ruby_system.network.l1_switch_0.throttle00.total_msg_bytes       181520                       # Total number of bytes forwarded by this switch (Byte)
board.cache_hierarchy.ruby_system.network.l1_switch_0.throttle00.total_data_msg_bytes       149696                       # Total number of data bytes forwarded by this switch (Byte)
board.cache_hierarchy.ruby_system.network.l1_switch_0.throttle00.total_msg_wait_time            0                       # Total time spend forwarding messages (Tick)
board.cache_hierarchy.ruby_system.network.l1_switch_0.throttle00.total_stall_cy            0                       # Total time spent blocked on any output link (Cycle)
board.cache_hierarchy.ruby_system.network.l1_switch_0.throttle00.total_bw_sat_cy         9356                       # Total time bandwidth was saturated on any output link (Cycle)
board.cache_hierarchy.ruby_system.network.l1_switch_0.throttle00.avg_msg_wait_time            0                       # Average time a message took to be forwarded (Ratio)
board.cache_hierarchy.ruby_system.network.l1_switch_0.throttle00.avg_bandwidth         0.20                       # Average bandwidth (GB/s) (Ratio)
board.cache_hierarchy.ruby_system.network.l1_switch_0.throttle00.avg_useful_bandwidth         0.17                       # Average usefull (only data) bandwidth (GB/s) (Ratio)
board.cache_hierarchy.ruby_system.network.l1_switch_0.throttle00.msg_count.Request_Control::2            7                       (Unspecified)
board.cache_hierarchy.ruby_system.network.l1_switch_0.throttle00.msg_bytes.Request_Control::2           56                       (Unspecified)
board.cache_hierarchy.ruby_system.network.l1_switch_0.throttle00.msg_count.Response_Data::1         2339                       (Unspecified)
board.cache_hierarchy.ruby_system.network.l1_switch_0.throttle00.msg_bytes.Response_Data::1       168408                       (Unspecified)
board.cache_hierarchy.ruby_system.network.l1_switch_0.throttle00.msg_count.Response_Control::1         1632                       (Unspecified)
board.cache_hierarchy.ruby_system.network.l1_switch_0.throttle00.msg_bytes.Response_Control::1        13056                       (Unspecified)
board.cache_hierarchy.ruby_system.network.l1_switch_0.throttle01.acc_link_utilization         3141                       # Accumulated link utilization (Count)
board.cache_hierarchy.ruby_system.network.l1_switch_0.throttle01.link_utilization     0.124730                       # Average link utilization (Ratio)
board.cache_hierarchy.ruby_system.network.l1_switch_0.throttle01.total_msg_count         6130                       # Total number of messages forwarded by this switch (Count)
board.cache_hierarchy.ruby_system.network.l1_switch_0.throttle01.total_msg_bytes        50256                       # Total number of bytes forwarded by this switch (Byte)
board.cache_hierarchy.ruby_system.network.l1_switch_0.throttle01.total_data_msg_bytes         1216                       # Total number of data bytes forwarded by this switch (Byte)
board.cache_hierarchy.ruby_system.network.l1_switch_0.throttle01.total_msg_wait_time        21312                       # Total time spend forwarding messages (Tick)
board.cache_hierarchy.ruby_system.network.l1_switch_0.throttle01.total_stall_cy            0                       # Total time spent blocked on any output link (Cycle)
board.cache_hierarchy.ruby_system.network.l1_switch_0.throttle01.total_bw_sat_cy           79                       # Total time bandwidth was saturated on any output link (Cycle)
board.cache_hierarchy.ruby_system.network.l1_switch_0.throttle01.avg_msg_wait_time     3.476672                       # Average time a message took to be forwarded (Ratio)
board.cache_hierarchy.ruby_system.network.l1_switch_0.throttle01.avg_bandwidth         0.06                       # Average bandwidth (GB/s) (Ratio)
board.cache_hierarchy.ruby_system.network.l1_switch_0.throttle01.avg_useful_bandwidth         0.00                       # Average usefull (only data) bandwidth (GB/s) (Ratio)
board.cache_hierarchy.ruby_system.network.l1_switch_0.throttle01.msg_count.Control::0         2348                       (Unspecified)
board.cache_hierarchy.ruby_system.network.l1_switch_0.throttle01.msg_bytes.Control::0        18784                       (Unspecified)
board.cache_hierarchy.ruby_system.network.l1_switch_0.throttle01.msg_count.Response_Data::1            7                       (Unspecified)
board.cache_hierarchy.ruby_system.network.l1_switch_0.throttle01.msg_bytes.Response_Data::1          504                       (Unspecified)
board.cache_hierarchy.ruby_system.network.l1_switch_0.throttle01.msg_count.Response_Control::1            3                       (Unspecified)
board.cache_hierarchy.ruby_system.network.l1_switch_0.throttle01.msg_count.Response_Control::2         2158                       (Unspecified)
board.cache_hierarchy.ruby_system.network.l1_switch_0.throttle01.msg_bytes.Response_Control::1           24                       (Unspecified)
[...]
board.processor.cores1.core.commitStats0.committedControl::IsReturn        32851                       # Class of control type instructions committed (Count)
board.processor.cores1.core.decode.idleCycles       268529                       # Number of cycles decode is idle (Cycle)
board.processor.cores1.core.decode.blockedCycles      1451058                       # Number of cycles decode is blocked (Cycle)
board.processor.cores1.core.decode.runCycles       585047                       # Number of cycles decode is running (Cycle)
board.processor.cores1.core.decode.unblockCycles       137413                       # Number of cycles decode is unblocking (Cycle)
board.processor.cores1.core.decode.squashCycles        32907                       # Number of cycles decode is squashing (Cycle)
board.processor.cores1.core.decode.branchResolved       164409                       # Number of times decode resolved a branch (Count)
board.processor.cores1.core.decode.branchMispred          124                       # Number of times decode detected a branch misprediction (Count)
board.processor.cores1.core.decode.decodedInsts      5383669                       # Number of instructions handled by decode (Count)
board.processor.cores1.core.decode.squashedInsts          622                       # Number of squashed instructions handled by decode (Count)
board.processor.cores1.core.executeStats0.numInsts      3481288                       # Number of executed instructions (Count)
board.processor.cores1.core.executeStats0.numNop            0                       # Number of nop insts executed (Count)
board.processor.cores1.core.executeStats0.numBranches       197471                       # Number of branches executed (Count)
board.processor.cores1.core.executeStats0.numLoadInsts       885545                       # Number of load instructions executed (Count)
board.processor.cores1.core.executeStats0.numStoreInsts       262953                       # Number of stores executed (Count)
board.processor.cores1.core.executeStats0.instRate     1.400521                       # Inst execution rate ((Count/Cycle))
board.processor.cores1.core.executeStats0.numCCRegReads       527290                       # Number of times the CC registers were read (Count)
board.processor.cores1.core.executeStats0.numCCRegWrites       854038                       # Number of times the CC registers were written (Count)
board.processor.cores1.core.executeStats0.numFpRegReads          662                       # Number of times the floating registers were read (Count)
board.processor.cores1.core.executeStats0.numFpRegWrites          397                       # Number of times the floating registers were written (Count)
board.processor.cores1.core.executeStats0.numIntRegReads      3841325                       # Number of times the integer registers were read (Count)
board.processor.cores1.core.executeStats0.numIntRegWrites      2823024                       # Number of times the integer registers were written (Count)
board.processor.cores1.core.executeStats0.numMemRefs      1148498                       # Number of memory refs (Count)
board.processor.cores1.core.executeStats0.numMiscRegReads      1576148                       # Number of times the Misc registers were read (Count)
board.processor.cores1.core.executeStats0.numMiscRegWrites            1                       # Number of times the Misc registers were written (Count)
board.processor.cores1.core.executeStats0.numVecAluAccesses            0                       # Number of vector alu accesses (Count)
board.processor.cores1.core.executeStats0.numDiscardedOps            0                       # Number of ops (including micro ops) which were discarded before commit (Count)
board.processor.cores1.core.fetch.predictedBranches       295581                       # Number of branches that fetch has predicted taken (Count)
board.processor.cores1.core.fetch.cycles      1910991                       # Number of cycles fetch has run and was not squashing or blocked (Cycle)
board.processor.cores1.core.fetch.squashCycles        66060                       # Number of cycles fetch has spent squashing (Cycle)
board.processor.cores1.core.fetch.miscStallCycles           16                       # Number of cycles fetch has spent waiting on interrupts, or bad addresses, or out of MSHRs (Cycle)
board.processor.cores1.core.fetch.pendingTrapStallCycles           77                       # Number of stall cycles due to pending traps (Cycle)
board.processor.cores1.core.fetch.icacheWaitRetryStallCycles           69                       # Number of stall cycles due to full MSHR (Cycle)
board.processor.cores1.core.fetch.cacheLines       525123                       # Number of cache lines fetched (Count)
board.processor.cores1.core.fetch.icacheSquashes        32896                       # Number of outstanding Icache misses that were squashed (Count)
board.processor.cores1.core.fetch.nisnDist::samples      2474954                       # Number of instructions fetched each cycle (Total) (Count)
board.processor.cores1.core.fetch.nisnDist::mean     2.493585                       # Number of instructions fetched each cycle (Total) (Count)
board.processor.cores1.core.fetch.nisnDist::stdev     3.395446                       # Number of instructions fetched each cycle (Total) (Count)
board.processor.cores1.core.fetch.nisnDist::underflows            0      0.00%      0.00% # Number of instructions fetched each cycle (Total) (Count)
board.processor.cores1.core.fetch.nisnDist::0      1522928     61.53%     61.53% # Number of instructions fetched each cycle (Total) (Count)
board.processor.cores1.core.fetch.nisnDist::1           92      0.00%     61.54% # Number of instructions fetched each cycle (Total) (Count)
board.processor.cores1.core.fetch.nisnDist::2        65595      2.65%     64.19% # Number of instructions fetched each cycle (Total) (Count)
board.processor.cores1.core.fetch.nisnDist::3        98459      3.98%     68.17% # Number of instructions fetched each cycle (Total) (Count)
board.processor.cores1.core.fetch.nisnDist::4        32851      1.33%     69.49% # Number of instructions fetched each cycle (Total) (Count)
board.processor.cores1.core.fetch.nisnDist::5          143      0.01%     69.50% # Number of instructions fetched each cycle (Total) (Count)
board.processor.cores1.core.fetch.nisnDist::6       163955      6.62%     76.12% # Number of instructions fetched each cycle (Total) (Count)
board.processor.cores1.core.fetch.nisnDist::7        98447      3.98%     80.10% # Number of instructions fetched each cycle (Total) (Count)
board.processor.cores1.core.fetch.nisnDist::8       492484     19.90%    100.00% # Number of instructions fetched each cycle (Total) (Count)
board.processor.cores1.core.fetch.nisnDist::overflows            0      0.00%    100.00% # Number of instructions fetched each cycle (Total) (Count)
board.processor.cores1.core.fetch.nisnDist::min_value            0                       # Number of instructions fetched each cycle (Total) (Count)
board.processor.cores1.core.fetch.nisnDist::max_value            8                       # Number of instructions fetched each cycle (Total) (Count)
board.processor.cores1.core.fetch.nisnDist::total      2474954                       # Number of instructions fetched each cycle (Total) (Count)
board.processor.cores1.core.fetchStats0.numInsts      3708160                       # Number of instructions fetched (thread level) (Count)
board.processor.cores1.core.fetchStats0.numOps            0                       # Number of ops (including micro ops) fetched (thread level) (Count)
board.processor.cores1.core.fetchStats0.fetchRate     1.491792                       # Number of inst fetches per cycle ((Count/Cycle))
board.processor.cores1.core.fetchStats0.numBranches       394454                       # Number of branches fetched (Count)
board.processor.cores1.core.fetchStats0.branchRate     0.158689                       # Number of branch fetches per cycle (Ratio)
board.processor.cores1.core.fetchStats0.icacheStallCycles       530771                       # ICache total stall cycles (Cycle)
board.processor.cores1.core.fetchStats0.numFetchSuspends            0                       # Number of times Execute suspended instruction fetching (Count)
board.processor.cores1.core.iew.idleCycles            0                       # Number of cycles IEW is idle (Cycle)
board.processor.cores1.core.iew.squashCycles        32907                       # Number of cycles IEW is squashing (Cycle)
board.processor.cores1.core.iew.blockCycles       800677                       # Number of cycles IEW is blocking (Cycle)
board.processor.cores1.core.iew.unblockCycles        65947                       # Number of cycles IEW is unblocking (Cycle)
board.processor.cores1.core.iew.dispatchedInsts      4858736                       # Number of instructions dispatched to IQ (Count)
board.processor.cores1.core.iew.dispSquashedInsts           16                       # Number of squashed instructions skipped by dispatch (Count)
board.processor.cores1.core.iew.dispLoadInsts      1213475                       # Number of dispatched load instructions (Count)
board.processor.cores1.core.iew.dispStoreInsts       394098                       # Number of dispatched store instructions (Count)
board.processor.cores1.core.iew.dispNonSpecInsts        65573                       # Number of dispatched non-speculative instructions (Count)
board.processor.cores1.core.iew.iqFullEvents           29                       # Number of times the IQ has become full, causing a stall (Count)
board.processor.cores1.core.iew.lsqFullEvents            0                       # Number of times the LSQ has become full, causing a stall (Count)
board.processor.cores1.core.iew.memOrderViolationEvents        32779                       # Number of memory order violations (Count)
board.processor.cores1.core.iew.predictedTakenIncorrect            8                       # Number of branches that were predicted taken incorrectly (Count)
board.processor.cores1.core.iew.predictedNotTakenIncorrect          132                       # Number of branches that were predicted not taken incorrectly (Count)
board.processor.cores1.core.iew.branchMispredicts          140                       # Number of branch mispredicts detected at execute (Count)
board.processor.cores1.core.iew.instsToCommit      3481242                       # Cumulative count of insts sent to commit (Count)
board.processor.cores1.core.iew.writebackCount      3481108                       # Cumulative count of insts written-back (Count)
board.processor.cores1.core.iew.producerInst      2591477                       # Number of instructions producing a value (Count)
board.processor.cores1.core.iew.consumerInst      3771124                       # Number of instructions consuming a value (Count)
board.processor.cores1.core.iew.wbRate       1.400449                       # Insts written-back per cycle ((Count/Cycle))
board.processor.cores1.core.iew.wbFanout     0.687190                       # Average fanout of values written-back ((Count/Count))
board.processor.cores1.core.interrupts.clk_domain.clock         5328                       # Clock period in ticks (Tick)
board.processor.cores1.core.lsq0.forwLoads        65677                       # Number of loads that had data forwarded from stores (Count)
board.processor.cores1.core.lsq0.squashedLoads       688582                       # Number of loads squashed (Count)
board.processor.cores1.core.lsq0.ignoredResponses            1                       # Number of memory responses ignored because the instruction is squashed (Count)
board.processor.cores1.core.lsq0.memOrderViolation        32779                       # Number of memory ordering violations (Count)
board.processor.cores1.core.lsq0.squashedStores       196761                       # Number of stores squashed (Count)
board.processor.cores1.core.lsq0.rescheduledLoads            0                       # Number of loads that were rescheduled (Count)
board.processor.cores1.core.lsq0.blockedByCache            1                       # Number of times an access to memory failed due to the cache being blocked (Count)
board.processor.cores1.core.lsq0.loadToUse::samples       524893                       # Distribution of cycle latency between the first time a load is issued and its completion (Unspecified)
board.processor.cores1.core.lsq0.loadToUse::mean     2.943164                       # Distribution of cycle latency between the first time a load is issued and its completion (Unspecified)
board.processor.cores1.core.lsq0.loadToUse::stdev     1.358467                       # Distribution of cycle latency between the first time a load is issued and its completion (Unspecified)
board.processor.cores1.core.lsq0.loadToUse::0-9       522783     99.60%     99.60% # Distribution of cycle latency between the first time a load is issued and its completion (Unspecified)
board.processor.cores1.core.lsq0.loadToUse::10-19         1710      0.33%     99.92% # Distribution of cycle latency between the first time a load is issued and its completion (Unspecified)
board.processor.cores1.core.lsq0.loadToUse::20-29            1      0.00%     99.92% # Distribution of cycle latency between the first time a load is issued and its completion (Unspecified)
board.processor.cores1.core.lsq0.loadToUse::30-39            1      0.00%     99.92% # Distribution of cycle latency between the first time a load is issued and its completion (Unspecified)
board.processor.cores1.core.lsq0.loadToUse::40-49          394      0.08%    100.00% # Distribution of cycle latency between the first time a load is issued and its completion (Unspecified)
board.processor.cores1.core.lsq0.loadToUse::50-59            1      0.00%    100.00% # Distribution of cycle latency between the first time a load is issued and its completion (Unspecified)
board.processor.cores1.core.lsq0.loadToUse::190-199            1      0.00%    100.00% # Distribution of cycle latency between the first time a load is issued and its completion (Unspecified)
board.processor.cores1.core.lsq0.loadToUse::200-209            2      0.00%    100.00% # Distribution of cycle latency between the first time a load is issued and its completion (Unspecified)
board.processor.cores1.core.lsq0.loadToUse::min_value            2                       # Distribution of cycle latency between the first time a load is issued and its completion (Unspecified)
board.processor.cores1.core.lsq0.loadToUse::max_value          201                       # Distribution of cycle latency between the first time a load is issued and its completion (Unspecified)
board.processor.cores1.core.lsq0.loadToUse::total       524893                       # Distribution of cycle latency between the first time a load is issued and its completion (Unspecified)
board.processor.cores1.core.mmu.dtb.rdAccesses       885545                       # TLB accesses on read requests (Count)
board.processor.cores1.core.mmu.dtb.wrAccesses       262953                       # TLB accesses on write requests (Count)
board.processor.cores1.core.mmu.dtb.rdMisses           74                       # TLB misses on read requests (Count)
board.processor.cores1.core.mmu.dtb.wrMisses            9                       # TLB misses on write requests (Count)
board.processor.cores1.core.mmu.dtb.walker.power_state.pwrStateResidencyTicks::UNDEFINED   1094066172                       # Cumulative time (in ticks) in various power states (Tick)
board.processor.cores1.core.mmu.itb.rdAccesses            0                       # TLB accesses on read requests (Count)
board.processor.cores1.core.mmu.itb.wrAccesses       525137                       # TLB accesses on write requests (Count)
board.processor.cores1.core.mmu.itb.rdMisses            0                       # TLB misses on read requests (Count)
board.processor.cores1.core.mmu.itb.wrMisses           51                       # TLB misses on write requests (Count)
board.processor.cores1.core.mmu.itb.walker.power_state.pwrStateResidencyTicks::UNDEFINED   1094066172                       # Cumulative time (in ticks) in various power states (Tick)
board.processor.cores1.core.power_state.pwrStateResidencyTicks::ON   1094066172                       # Cumulative time (in ticks) in various power states (Tick)
board.processor.cores1.core.rename.squashCycles        32907                       # Number of cycles rename is squashing (Cycle)
board.processor.cores1.core.rename.idleCycles       334263                       # Number of cycles rename is idle (Cycle)
board.processor.cores1.core.rename.blockCycles      1075209                       # Number of cycles rename is blocking (Cycle)
board.processor.cores1.core.rename.serializeStallCycles            0                       # count of cycles rename stalled for serializing inst (Cycle)
board.processor.cores1.core.rename.runCycles       656713                       # Number of cycles rename is running (Cycle)
board.processor.cores1.core.rename.unblockCycles       375862                       # Number of cycles rename is unblocking (Cycle)
board.processor.cores1.core.rename.renamedInsts      5121291                       # Number of instructions processed by rename (Count)
board.processor.cores1.core.rename.ROBFullEvents            6                       # Number of times rename has blocked due to ROB full (Count)
board.processor.cores1.core.rename.IQFullEvents       368703                       # Number of times rename has blocked due to IQ full (Count)
board.processor.cores1.core.rename.SQFullEvents         7097                       # Number of times rename has blocked due to SQ full (Count)
board.processor.cores1.core.rename.renamedOperands      8107447                       # Number of destination operands rename has renamed (Count)
board.processor.cores1.core.rename.lookups     16018930                       # Number of register rename lookups that rename has made (Count)
board.processor.cores1.core.rename.intLookups      6071478                       # Number of integer rename lookups (Count)
board.processor.cores1.core.rename.fpLookups          669                       # Number of floating rename lookups (Count)
board.processor.cores1.core.rename.committedMaps      3252737                       # Number of HB maps that are committed (Count)
board.processor.cores1.core.rename.undoneMaps      4854710                       # Number of HB maps that are undone due to squashing (Count)
board.processor.cores1.core.rename.serializing            0                       # count of serializing insts renamed (Count)
board.processor.cores1.core.rename.tempSerializing            0                       # count of temporary serializing insts renamed (Count)
board.processor.cores1.core.rename.skidInsts       570347                       # count of insts added to the skid buffer (Count)
board.processor.cores1.core.rob.reads         6845340                       # The number of ROB reads (Count)
board.processor.cores1.core.rob.writes       10077974                       # The number of ROB writes (Count)
board.processor.cores1.core.thread_0.numInsts      1248089                       # Number of Instructions committed (Count)
board.processor.cores1.core.thread_0.numOps      2103063                       # Number of Ops committed (Count)
board.processor.cores1.core.thread_0.numMemRefs            0                       # Number of Memory References (Count)
board.workload.inst.arm                             0                       # number of arm instructions executed (Count)
board.workload.inst.quiesce                         0                       # number of quiesce instructions executed (Count)

---------- End Simulation Statistics   ----------
