
---------- Begin Simulation Statistics ----------
simSeconds                                   0.000142                       # Number of seconds simulated (Second)
simTicks                                    142317207                       # Number of ticks simulated (Tick)
finalTick                                   401240358                       # Number of ticks from beginning of simulation (restored from checkpoints and never reset) (Tick)
simFreq                                  1000000000000                       # The number of ticks per simulated second ((Tick/Second))
hostSeconds                                     16.83                       # Real time elapsed on the host (Second)
hostTickRate                                  8455007                       # The number of ticks simulated per host second (ticks/s) ((Tick/Second))
hostMemory                                    1627984                       # Number of bytes of host memory used (Byte)
simInsts                                      1734796                       # Number of instructions simulated (Count)
simOps                                        2904496                       # Number of ops (including micro ops) simulated (Count)
hostInstRate                                   103063                       # Simulator instruction rate (inst/s) ((Count/Second))
hostOpRate                                     172553                       # Simulator op (including micro ops) rate (op/s) ((Count/Second))
board.cache_hierarchy.ruby_system.delayHistogram::bucket_size            4                       # delay histogram for all message (Unspecified)
board.cache_hierarchy.ruby_system.delayHistogram::max_bucket           39                       # delay histogram for all message (Unspecified)
board.cache_hierarchy.ruby_system.delayHistogram::samples        15081                       # delay histogram for all message (Unspecified)
board.cache_hierarchy.ruby_system.delayHistogram::mean     0.302699                       # delay histogram for all message (Unspecified)
board.cache_hierarchy.ruby_system.delayHistogram::stdev     1.585728                       # delay histogram for all message (Unspecified)
board.cache_hierarchy.ruby_system.delayHistogram |       14520     96.28%     96.28% |         127      0.84%     97.12% |         399      2.65%     99.77% |          11      0.07%     99.84% |          19      0.13%     99.97% |           0      0.00%     99.97% |           5      0.03%    100.00% |           0      0.00%    100.00% |           0      0.00%    100.00% |           0      0.00%    100.00% # delay histogram for all message (Unspecified)
board.cache_hierarchy.ruby_system.delayHistogram::total        15081                       # delay histogram for all message (Unspecified)
board.cache_hierarchy.ruby_system.m_outstandReqHistSeqr::bucket_size            2                       (Unspecified)
board.cache_hierarchy.ruby_system.m_outstandReqHistSeqr::max_bucket           19                       (Unspecified)
board.cache_hierarchy.ruby_system.m_outstandReqHistSeqr::samples      1126136                       (Unspecified)
board.cache_hierarchy.ruby_system.m_outstandReqHistSeqr::mean     1.037619                       (Unspecified)
board.cache_hierarchy.ruby_system.m_outstandReqHistSeqr::gmean     1.022839                       (Unspecified)
board.cache_hierarchy.ruby_system.m_outstandReqHistSeqr::stdev     0.269600                       (Unspecified)
board.cache_hierarchy.ruby_system.m_outstandReqHistSeqr |     1095018     97.24%     97.24% |       28698      2.55%     99.79% |        2093      0.19%     99.97% |         200      0.02%     99.99% |          40      0.00%     99.99% |          39      0.00%    100.00% |          33      0.00%    100.00% |          10      0.00%    100.00% |           5      0.00%    100.00% |           0      0.00%    100.00% (Unspecified)
board.cache_hierarchy.ruby_system.m_outstandReqHistSeqr::total      1126136                       (Unspecified)
board.cache_hierarchy.ruby_system.m_latencyHistSeqr::bucket_size          256                       (Unspecified)
board.cache_hierarchy.ruby_system.m_latencyHistSeqr::max_bucket         2559                       (Unspecified)
board.cache_hierarchy.ruby_system.m_latencyHistSeqr::samples      1126411                       (Unspecified)
board.cache_hierarchy.ruby_system.m_latencyHistSeqr::mean     1.333541                       (Unspecified)
board.cache_hierarchy.ruby_system.m_latencyHistSeqr::gmean     1.017875                       (Unspecified)
board.cache_hierarchy.ruby_system.m_latencyHistSeqr::stdev     7.168640                       (Unspecified)
board.cache_hierarchy.ruby_system.m_latencyHistSeqr |     1126370    100.00%    100.00% |          31      0.00%    100.00% |           0      0.00%    100.00% |           0      0.00%    100.00% |           7      0.00%    100.00% |           3      0.00%    100.00% |           0      0.00%    100.00% |           0      0.00%    100.00% |           0      0.00%    100.00% |           0      0.00%    100.00% (Unspecified)
board.cache_hierarchy.ruby_system.m_latencyHistSeqr::total      1126411                       (Unspecified)
board.cache_hierarchy.ruby_system.m_hitLatencyHistSeqr::bucket_size           32                       (Unspecified)
board.cache_hierarchy.ruby_system.m_hitLatencyHistSeqr::max_bucket          319                       (Unspecified)
board.cache_hierarchy.ruby_system.m_hitLatencyHistSeqr::samples      1121628                       (Unspecified)
board.cache_hierarchy.ruby_system.m_hitLatencyHistSeqr::mean     1.000749                       (Unspecified)
board.cache_hierarchy.ruby_system.m_hitLatencyHistSeqr::gmean     1.000185                       (Unspecified)
board.cache_hierarchy.ruby_system.m_hitLatencyHistSeqr::stdev     0.286543                       (Unspecified)
board.cache_hierarchy.ruby_system.m_hitLatencyHistSeqr |     1121624    100.00%    100.00% |           1      0.00%    100.00% |           0      0.00%    100.00% |           0      0.00%    100.00% |           1      0.00%    100.00% |           1      0.00%    100.00% |           1      0.00%    100.00% |           0      0.00%    100.00% |           0      0.00%    100.00% |           0      0.00%    100.00% (Unspecified)
board.cache_hierarchy.ruby_system.m_hitLatencyHistSeqr::total      1121628                       (Unspecified)
board.cache_hierarchy.ruby_system.m_missLatencyHistSeqr::bucket_size          256                       (Unspecified)
board.cache_hierarchy.ruby_system.m_missLatencyHistSeqr::max_bucket         2559                       (Unspecified)
board.cache_hierarchy.ruby_system.m_missLatencyHistSeqr::samples         4783                       (Unspecified)
board.cache_hierarchy.ruby_system.m_missLatencyHistSeqr::mean    79.374242                       (Unspecified)
board.cache_hierarchy.ruby_system.m_missLatencyHistSeqr::gmean    62.116159                       (Unspecified)
board.cache_hierarchy.ruby_system.m_missLatencyHistSeqr::stdev    77.252959                       (Unspecified)
board.cache_hierarchy.ruby_system.m_missLatencyHistSeqr |        4742     99.14%     99.14% |          31      0.65%     99.79% |           0      0.00%     99.79% |           0      0.00%     99.79% |           7      0.15%     99.94% |           3      0.06%    100.00% |           0      0.00%    100.00% |           0      0.00%    100.00% |           0      0.00%    100.00% |           0      0.00%    100.00% (Unspecified)
board.cache_hierarchy.ruby_system.m_missLatencyHistSeqr::total         4783                       (Unspecified)
board.cache_hierarchy.ruby_system.delayVCHist.vnet_0::bucket_size            4                       # delay histogram for vnet_0 (Unspecified)
board.cache_hierarchy.ruby_system.delayVCHist.vnet_0::max_bucket           39                       # delay histogram for vnet_0 (Unspecified)
board.cache_hierarchy.ruby_system.delayVCHist.vnet_0::samples         7968                       # delay histogram for vnet_0 (Unspecified)
board.cache_hierarchy.ruby_system.delayVCHist.vnet_0::mean     0.254644                       # delay histogram for vnet_0 (Unspecified)
board.cache_hierarchy.ruby_system.delayVCHist.vnet_0::stdev     1.438952                       # delay histogram for vnet_0 (Unspecified)
board.cache_hierarchy.ruby_system.delayVCHist.vnet_0 |        7717     96.85%     96.85% |          26      0.33%     97.18% |         216      2.71%     99.89% |           4      0.05%     99.94% |           4      0.05%     99.99% |           0      0.00%     99.99% |           1      0.01%    100.00% |           0      0.00%    100.00% |           0      0.00%    100.00% |           0      0.00%    100.00% # delay histogram for vnet_0 (Unspecified)
board.cache_hierarchy.ruby_system.delayVCHist.vnet_0::total         7968                       # delay histogram for vnet_0 (Unspecified)
board.cache_hierarchy.ruby_system.delayVCHist.vnet_1::bucket_size            4                       # delay histogram for vnet_1 (Unspecified)
board.cache_hierarchy.ruby_system.delayVCHist.vnet_1::max_bucket           39                       # delay histogram for vnet_1 (Unspecified)
board.cache_hierarchy.ruby_system.delayVCHist.vnet_1::samples         6421                       # delay histogram for vnet_1 (Unspecified)
board.cache_hierarchy.ruby_system.delayVCHist.vnet_1::mean     0.394954                       # delay histogram for vnet_1 (Unspecified)
board.cache_hierarchy.ruby_system.delayVCHist.vnet_1::stdev     1.820889                       # delay histogram for vnet_1 (Unspecified)
board.cache_hierarchy.ruby_system.delayVCHist.vnet_1 |        6111     95.17%     95.17% |         101      1.57%     96.75% |         183      2.85%     99.60% |           7      0.11%     99.70% |          15      0.23%     99.94% |           0      0.00%     99.94% |           4      0.06%    100.00% |           0      0.00%    100.00% |           0      0.00%    100.00% |           0      0.00%    100.00% # delay histogram for vnet_1 (Unspecified)
board.cache_hierarchy.ruby_system.delayVCHist.vnet_1::total         6421                       # delay histogram for vnet_1 (Unspecified)
board.cache_hierarchy.ruby_system.delayVCHist.vnet_2::bucket_size            1                       # delay histogram for vnet_2 (Unspecified)
board.cache_hierarchy.ruby_system.delayVCHist.vnet_2::max_bucket            9                       # delay histogram for vnet_2 (Unspecified)
board.cache_hierarchy.ruby_system.delayVCHist.vnet_2::samples          692                       # delay histogram for vnet_2 (Unspecified)
board.cache_hierarchy.ruby_system.delayVCHist.vnet_2 |         692    100.00%    100.00% |           0      0.00%    100.00% |           0      0.00%    100.00% |           0      0.00%    100.00% |           0      0.00%    100.00% |           0      0.00%    100.00% |           0      0.00%    100.00% |           0      0.00%    100.00% |           0      0.00%    100.00% |           0      0.00%    100.00% # delay histogram for vnet_2 (Unspecified)
board.cache_hierarchy.ruby_system.delayVCHist.vnet_2::total          692                       # delay histogram for vnet_2 (Unspecified)
board.cache_hierarchy.ruby_system.Directory_Controller.Fetch          818      0.00%      0.00% (Unspecified)
board.cache_hierarchy.ruby_system.Directory_Controller.Memory_Data          818      0.00%      0.00% (Unspecified)
board.cache_hierarchy.ruby_system.Directory_Controller.I.Fetch          818      0.00%      0.00% (Unspecified)
board.cache_hierarchy.ruby_system.Directory_Controller.IM.Memory_Data          818      0.00%      0.00% (Unspecified)
board.cache_hierarchy.ruby_system.L1Cache_Controller.Load |        6673      2.18%      2.18% |       37460     12.24%     14.42% |       37435     12.23%     26.65% |       37432     12.23%     38.88% |       37412     12.22%     51.10% |       37422     12.23%     63.33% |       37417     12.22%     75.55% |       37413     12.22%     87.78% |       37408     12.22%    100.00% (Unspecified)
board.cache_hierarchy.ruby_system.L1Cache_Controller.Load::total       306072                       (Unspecified)
board.cache_hierarchy.ruby_system.L1Cache_Controller.Ifetch |       11530      2.13%      2.13% |       66291     12.23%     14.35% |       66392     12.25%     26.60% |       66379     12.24%     38.84% |       66324     12.23%     51.08% |       66319     12.23%     63.31% |       66309     12.23%     75.54% |       66320     12.23%     87.77% |       66303     12.23%    100.00% (Unspecified)
board.cache_hierarchy.ruby_system.L1Cache_Controller.Ifetch::total       542167                       (Unspecified)
board.cache_hierarchy.ruby_system.L1Cache_Controller.Store |       11495      4.13%      4.13% |       33520     12.05%     16.18% |       33517     12.05%     28.23% |       33516     12.05%     40.28% |       33225     11.94%     52.22% |       33225     11.94%     64.17% |       33225     11.94%     76.11% |       33225     11.94%     88.06% |       33225     11.94%    100.00% (Unspecified)
board.cache_hierarchy.ruby_system.L1Cache_Controller.Store::total       278173                       (Unspecified)
board.cache_hierarchy.ruby_system.L1Cache_Controller.Inv |          42     36.21%     36.21% |           9      7.76%     43.97% |          15     12.93%     56.90% |          14     12.07%     68.97% |           5      4.31%     73.28% |          11      9.48%     82.76% |          10      8.62%     91.38% |           9      7.76%     99.14% |           1      0.86%    100.00% (Unspecified)
board.cache_hierarchy.ruby_system.L1Cache_Controller.Inv::total          116                       (Unspecified)
board.cache_hierarchy.ruby_system.L1Cache_Controller.L1_Replacement |         616     99.68%     99.68% |           0      0.00%     99.68% |           0      0.00%     99.68% |           0      0.00%     99.68% |           0      0.00%     99.68% |           2      0.32%    100.00% |           0      0.00%    100.00% |           0      0.00%    100.00% |           0      0.00%    100.00% (Unspecified)
board.cache_hierarchy.ruby_system.L1Cache_Controller.L1_Replacement::total          618                       (Unspecified)
board.cache_hierarchy.ruby_system.L1Cache_Controller.Fwd_GETX |          24     25.00%     25.00% |           3      3.12%     28.12% |          13     13.54%     41.67% |          13     13.54%     55.21% |           3      3.12%     58.33% |          13     13.54%     71.87% |          13     13.54%     85.42% |          13     13.54%     98.96% |           1      1.04%    100.00% (Unspecified)
board.cache_hierarchy.ruby_system.L1Cache_Controller.Fwd_GETX::total           96                       (Unspecified)
board.cache_hierarchy.ruby_system.L1Cache_Controller.Fwd_GETS |         375     78.12%     78.12% |          17      3.54%     81.67% |          18      3.75%     85.42% |          17      3.54%     88.96% |           8      1.67%     90.62% |          14      2.92%     93.54% |          13      2.71%     96.25% |          14      2.92%     99.17% |           4      0.83%    100.00% (Unspecified)
board.cache_hierarchy.ruby_system.L1Cache_Controller.Fwd_GETS::total          480                       (Unspecified)
board.cache_hierarchy.ruby_system.L1Cache_Controller.Data_Exclusive |          52      2.82%      2.82% |         266     14.40%     17.22% |         261     14.13%     31.35% |         260     14.08%     45.43% |         261     14.13%     59.56% |         261     14.13%     73.69% |         261     14.13%     87.82% |         175      9.47%     97.29% |          50      2.71%    100.00% (Unspecified)
board.cache_hierarchy.ruby_system.L1Cache_Controller.Data_Exclusive::total         1847                       (Unspecified)
board.cache_hierarchy.ruby_system.L1Cache_Controller.DataS_fromL1 |          36      7.50%      7.50% |          23      4.79%     12.29% |          21      4.38%     16.67% |          17      3.54%     20.21% |          18      3.75%     23.96% |          18      3.75%     27.71% |          17      3.54%     31.25% |         102     21.25%     52.50% |         228     47.50%    100.00% (Unspecified)
board.cache_hierarchy.ruby_system.L1Cache_Controller.DataS_fromL1::total          480                       (Unspecified)
board.cache_hierarchy.ruby_system.L1Cache_Controller.Data_all_Acks |         544     23.16%     23.16% |         251     10.69%     33.84% |         260     11.07%     44.91% |         267     11.37%     56.28% |         203      8.64%     64.92% |         205      8.73%     73.65% |         204      8.68%     82.33% |         210      8.94%     91.27% |         205      8.73%    100.00% (Unspecified)
board.cache_hierarchy.ruby_system.L1Cache_Controller.Data_all_Acks::total         2349                       (Unspecified)
board.cache_hierarchy.ruby_system.L1Cache_Controller.Ack |          14     12.07%     12.07% |          16     13.79%     25.86% |          10      8.62%     34.48% |          11      9.48%     43.97% |          15     12.93%     56.90% |          11      9.48%     66.38% |          13     11.21%     77.59% |          13     11.21%     88.79% |          13     11.21%    100.00% (Unspecified)
board.cache_hierarchy.ruby_system.L1Cache_Controller.Ack::total          116                       (Unspecified)
board.cache_hierarchy.ruby_system.L1Cache_Controller.Ack_all |          14     13.08%     13.08% |          13     12.15%     25.23% |          10      9.35%     34.58% |          10      9.35%     43.93% |          13     12.15%     56.07% |          11     10.28%     66.36% |          12     11.21%     77.57% |          12     11.21%     88.79% |          12     11.21%    100.00% (Unspecified)
board.cache_hierarchy.ruby_system.L1Cache_Controller.Ack_all::total          107                       (Unspecified)
board.cache_hierarchy.ruby_system.L1Cache_Controller.WB_Ack |         224    100.00%    100.00% |           0      0.00%    100.00% |           0      0.00%    100.00% |           0      0.00%    100.00% |           0      0.00%    100.00% |           0      0.00%    100.00% |           0      0.00%    100.00% |           0      0.00%    100.00% |           0      0.00%    100.00% (Unspecified)
board.cache_hierarchy.ruby_system.L1Cache_Controller.WB_Ack::total          224                       (Unspecified)
board.cache_hierarchy.ruby_system.L1Cache_Controller.NP.Load |          89      3.70%      3.70% |         286     11.89%     15.59% |         287     11.93%     27.53% |         287     11.93%     39.46% |         291     12.10%     51.56% |         291     12.10%     63.66% |         291     12.10%     75.76% |         292     12.14%     87.90% |         291     12.10%    100.00% (Unspecified)
board.cache_hierarchy.ruby_system.L1Cache_Controller.NP.Load::total         2405                       (Unspecified)
board.cache_hierarchy.ruby_system.L1Cache_Controller.NP.Ifetch |         321     18.72%     18.72% |         189     11.02%     29.74% |         190     11.08%     40.82% |         192     11.20%     52.01% |         163      9.50%     61.52% |         164      9.56%     71.08% |         164      9.56%     80.64% |         167      9.74%     90.38% |         165      9.62%    100.00% (Unspecified)
board.cache_hierarchy.ruby_system.L1Cache_Controller.NP.Ifetch::total         1715                       (Unspecified)
board.cache_hierarchy.ruby_system.L1Cache_Controller.NP.Store |         204     39.46%     39.46% |          60     11.61%     51.06% |          60     11.61%     62.67% |          60     11.61%     74.27% |          27      5.22%     79.50% |          27      5.22%     84.72% |          26      5.03%     89.75% |          27      5.22%     94.97% |          26      5.03%    100.00% (Unspecified)
board.cache_hierarchy.ruby_system.L1Cache_Controller.NP.Store::total          517                       (Unspecified)
board.cache_hierarchy.ruby_system.L1Cache_Controller.NP.Inv |           5    100.00%    100.00% |           0      0.00%    100.00% |           0      0.00%    100.00% |           0      0.00%    100.00% |           0      0.00%    100.00% |           0      0.00%    100.00% |           0      0.00%    100.00% |           0      0.00%    100.00% |           0      0.00%    100.00% (Unspecified)
board.cache_hierarchy.ruby_system.L1Cache_Controller.NP.Inv::total            5                       (Unspecified)
board.cache_hierarchy.ruby_system.L1Cache_Controller.I.Load |          16     55.17%     55.17% |           5     17.24%     72.41% |           3     10.34%     82.76% |           3     10.34%     93.10% |           1      3.45%     96.55% |           1      3.45%    100.00% |           0      0.00%    100.00% |           0      0.00%    100.00% |           0      0.00%    100.00% (Unspecified)
board.cache_hierarchy.ruby_system.L1Cache_Controller.I.Load::total           29                       (Unspecified)
board.cache_hierarchy.ruby_system.L1Cache_Controller.I.Store |           2     20.00%     20.00% |           0      0.00%     20.00% |           2     20.00%     40.00% |           2     20.00%     60.00% |           0      0.00%     60.00% |           1     10.00%     70.00% |           1     10.00%     80.00% |           1     10.00%     90.00% |           1     10.00%    100.00% (Unspecified)
board.cache_hierarchy.ruby_system.L1Cache_Controller.I.Store::total           10                       (Unspecified)
board.cache_hierarchy.ruby_system.L1Cache_Controller.I.L1_Replacement |          21    100.00%    100.00% |           0      0.00%    100.00% |           0      0.00%    100.00% |           0      0.00%    100.00% |           0      0.00%    100.00% |           0      0.00%    100.00% |           0      0.00%    100.00% |           0      0.00%    100.00% |           0      0.00%    100.00% (Unspecified)
board.cache_hierarchy.ruby_system.L1Cache_Controller.I.L1_Replacement::total           21                       (Unspecified)
board.cache_hierarchy.ruby_system.L1Cache_Controller.S.Load |         190      3.65%      3.65% |          67      1.29%      4.94% |          88      1.69%      6.63% |          84      1.61%      8.24% |          73      1.40%      9.65% |          65      1.25%     10.90% |          70      1.35%     12.24% |        1359     26.11%     38.36% |        3208     61.64%    100.00% (Unspecified)
board.cache_hierarchy.ruby_system.L1Cache_Controller.S.Load::total         5204                       (Unspecified)
board.cache_hierarchy.ruby_system.L1Cache_Controller.S.Ifetch |       11208      2.07%      2.07% |       66102     12.23%     14.30% |       66202     12.25%     26.55% |       66187     12.25%     38.80% |       66161     12.24%     51.04% |       66155     12.24%     63.28% |       66145     12.24%     75.52% |       66153     12.24%     87.76% |       66138     12.24%    100.00% (Unspecified)
board.cache_hierarchy.ruby_system.L1Cache_Controller.S.Ifetch::total       540451                       (Unspecified)
board.cache_hierarchy.ruby_system.L1Cache_Controller.S.Store |          14     13.08%     13.08% |          13     12.15%     25.23% |          10      9.35%     34.58% |          10      9.35%     43.93% |          13     12.15%     56.07% |          11     10.28%     66.36% |          12     11.21%     77.57% |          12     11.21%     88.79% |          12     11.21%    100.00% (Unspecified)
board.cache_hierarchy.ruby_system.L1Cache_Controller.S.Store::total          107                       (Unspecified)
board.cache_hierarchy.ruby_system.L1Cache_Controller.S.Inv |          37     33.33%     33.33% |           9      8.11%     41.44% |          15     13.51%     54.95% |          14     12.61%     67.57% |           5      4.50%     72.07% |          11      9.91%     81.98% |          10      9.01%     90.99% |           9      8.11%     99.10% |           1      0.90%    100.00% (Unspecified)
board.cache_hierarchy.ruby_system.L1Cache_Controller.S.Inv::total          111                       (Unspecified)
board.cache_hierarchy.ruby_system.L1Cache_Controller.S.L1_Replacement |         371     99.46%     99.46% |           0      0.00%     99.46% |           0      0.00%     99.46% |           0      0.00%     99.46% |           0      0.00%     99.46% |           2      0.54%    100.00% |           0      0.00%    100.00% |           0      0.00%    100.00% |           0      0.00%    100.00% (Unspecified)
board.cache_hierarchy.ruby_system.L1Cache_Controller.S.L1_Replacement::total          373                       (Unspecified)
board.cache_hierarchy.ruby_system.L1Cache_Controller.E.Load |         829      3.06%      3.06% |        3840     14.18%     17.24% |        3836     14.16%     31.40% |        3836     14.16%     45.56% |        3836     14.16%     59.73% |        3836     14.16%     73.89% |        3836     14.16%     88.05% |        2546      9.40%     97.45% |         690      2.55%    100.00% (Unspecified)
board.cache_hierarchy.ruby_system.L1Cache_Controller.E.Load::total        27085                       (Unspecified)
board.cache_hierarchy.ruby_system.L1Cache_Controller.E.Store |          22     88.00%     88.00% |           0      0.00%     88.00% |           0      0.00%     88.00% |           0      0.00%     88.00% |           0      0.00%     88.00% |           1      4.00%     92.00% |           1      4.00%     96.00% |           0      0.00%     96.00% |           1      4.00%    100.00% (Unspecified)
board.cache_hierarchy.ruby_system.L1Cache_Controller.E.Store::total           25                       (Unspecified)
board.cache_hierarchy.ruby_system.L1Cache_Controller.E.L1_Replacement |           5    100.00%    100.00% |           0      0.00%    100.00% |           0      0.00%    100.00% |           0      0.00%    100.00% |           0      0.00%    100.00% |           0      0.00%    100.00% |           0      0.00%    100.00% |           0      0.00%    100.00% |           0      0.00%    100.00% (Unspecified)
board.cache_hierarchy.ruby_system.L1Cache_Controller.E.L1_Replacement::total            5                       (Unspecified)
board.cache_hierarchy.ruby_system.L1Cache_Controller.E.Fwd_GETS |           8     28.57%     28.57% |           7     25.00%     53.57% |           3     10.71%     64.29% |           2      7.14%     71.43% |           2      7.14%     78.57% |           2      7.14%     85.71% |           2      7.14%     92.86% |           2      7.14%    100.00% |           0      0.00%    100.00% (Unspecified)
board.cache_hierarchy.ruby_system.L1Cache_Controller.E.Fwd_GETS::total           28                       (Unspecified)
board.cache_hierarchy.ruby_system.L1Cache_Controller.M.Load |        5549      2.04%      2.04% |       33262     12.26%     14.30% |       33221     12.24%     26.55% |       33222     12.24%     38.79% |       33211     12.24%     51.03% |       33229     12.25%     63.27% |       33220     12.24%     75.52% |       33216     12.24%     87.76% |       33219     12.24%    100.00% (Unspecified)
board.cache_hierarchy.ruby_system.L1Cache_Controller.M.Load::total       271349                       (Unspecified)
board.cache_hierarchy.ruby_system.L1Cache_Controller.M.Store |       11253      4.05%      4.05% |       33447     12.05%     16.11% |       33445     12.05%     28.16% |       33444     12.05%     40.21% |       33185     11.96%     52.17% |       33185     11.96%     64.13% |       33185     11.96%     76.08% |       33185     11.96%     88.04% |       33185     11.96%    100.00% (Unspecified)
board.cache_hierarchy.ruby_system.L1Cache_Controller.M.Store::total       277514                       (Unspecified)
board.cache_hierarchy.ruby_system.L1Cache_Controller.M.L1_Replacement |         219    100.00%    100.00% |           0      0.00%    100.00% |           0      0.00%    100.00% |           0      0.00%    100.00% |           0      0.00%    100.00% |           0      0.00%    100.00% |           0      0.00%    100.00% |           0      0.00%    100.00% |           0      0.00%    100.00% (Unspecified)
board.cache_hierarchy.ruby_system.L1Cache_Controller.M.L1_Replacement::total          219                       (Unspecified)
board.cache_hierarchy.ruby_system.L1Cache_Controller.M.Fwd_GETX |          24     25.00%     25.00% |           3      3.12%     28.12% |          13     13.54%     41.67% |          13     13.54%     55.21% |           3      3.12%     58.33% |          13     13.54%     71.87% |          13     13.54%     85.42% |          13     13.54%     98.96% |           1      1.04%    100.00% (Unspecified)
board.cache_hierarchy.ruby_system.L1Cache_Controller.M.Fwd_GETX::total           96                       (Unspecified)
board.cache_hierarchy.ruby_system.L1Cache_Controller.M.Fwd_GETS |         367     81.19%     81.19% |          10      2.21%     83.41% |          15      3.32%     86.73% |          15      3.32%     90.04% |           6      1.33%     91.37% |          12      2.65%     94.03% |          11      2.43%     96.46% |          12      2.65%     99.12% |           4      0.88%    100.00% (Unspecified)
board.cache_hierarchy.ruby_system.L1Cache_Controller.M.Fwd_GETS::total          452                       (Unspecified)
board.cache_hierarchy.ruby_system.L1Cache_Controller.IS.Data_Exclusive |          52      2.82%      2.82% |         266     14.40%     17.22% |         261     14.13%     31.35% |         260     14.08%     45.43% |         261     14.13%     59.56% |         261     14.13%     73.69% |         261     14.13%     87.82% |         175      9.47%     97.29% |          50      2.71%    100.00% (Unspecified)
board.cache_hierarchy.ruby_system.L1Cache_Controller.IS.Data_Exclusive::total         1847                       (Unspecified)
board.cache_hierarchy.ruby_system.L1Cache_Controller.IS.DataS_fromL1 |          36      7.50%      7.50% |          23      4.79%     12.29% |          21      4.38%     16.67% |          17      3.54%     20.21% |          18      3.75%     23.96% |          18      3.75%     27.71% |          17      3.54%     31.25% |         102     21.25%     52.50% |         228     47.50%    100.00% (Unspecified)
board.cache_hierarchy.ruby_system.L1Cache_Controller.IS.DataS_fromL1::total          480                       (Unspecified)
board.cache_hierarchy.ruby_system.L1Cache_Controller.IS.Data_all_Acks |         338     18.55%     18.55% |         191     10.48%     29.03% |         198     10.87%     39.90% |         205     11.25%     51.15% |         176      9.66%     60.81% |         177      9.71%     70.53% |         177      9.71%     80.24% |         182      9.99%     90.23% |         178      9.77%    100.00% (Unspecified)
board.cache_hierarchy.ruby_system.L1Cache_Controller.IS.Data_all_Acks::total         1822                       (Unspecified)
board.cache_hierarchy.ruby_system.L1Cache_Controller.IM.Data_all_Acks |         206     39.09%     39.09% |          60     11.39%     50.47% |          62     11.76%     62.24% |          62     11.76%     74.00% |          27      5.12%     79.13% |          28      5.31%     84.44% |          27      5.12%     89.56% |          28      5.31%     94.88% |          27      5.12%    100.00% (Unspecified)
board.cache_hierarchy.ruby_system.L1Cache_Controller.IM.Data_all_Acks::total          527                       (Unspecified)
board.cache_hierarchy.ruby_system.L1Cache_Controller.SM.Ack |          14     12.07%     12.07% |          16     13.79%     25.86% |          10      8.62%     34.48% |          11      9.48%     43.97% |          15     12.93%     56.90% |          11      9.48%     66.38% |          13     11.21%     77.59% |          13     11.21%     88.79% |          13     11.21%    100.00% (Unspecified)
board.cache_hierarchy.ruby_system.L1Cache_Controller.SM.Ack::total          116                       (Unspecified)
board.cache_hierarchy.ruby_system.L1Cache_Controller.SM.Ack_all |          14     13.08%     13.08% |          13     12.15%     25.23% |          10      9.35%     34.58% |          10      9.35%     43.93% |          13     12.15%     56.07% |          11     10.28%     66.36% |          12     11.21%     77.57% |          12     11.21%     88.79% |          12     11.21%    100.00% (Unspecified)
board.cache_hierarchy.ruby_system.L1Cache_Controller.SM.Ack_all::total          107                       (Unspecified)
board.cache_hierarchy.ruby_system.L1Cache_Controller.M_I.Ifetch |           1    100.00%    100.00% |           0      0.00%    100.00% |           0      0.00%    100.00% |           0      0.00%    100.00% |           0      0.00%    100.00% |           0      0.00%    100.00% |           0      0.00%    100.00% |           0      0.00%    100.00% |           0      0.00%    100.00% (Unspecified)
board.cache_hierarchy.ruby_system.L1Cache_Controller.M_I.Ifetch::total            1                       (Unspecified)
board.cache_hierarchy.ruby_system.L1Cache_Controller.M_I.WB_Ack |         224    100.00%    100.00% |           0      0.00%    100.00% |           0      0.00%    100.00% |           0      0.00%    100.00% |           0      0.00%    100.00% |           0      0.00%    100.00% |           0      0.00%    100.00% |           0      0.00%    100.00% |           0      0.00%    100.00% (Unspecified)
board.cache_hierarchy.ruby_system.L1Cache_Controller.M_I.WB_Ack::total          224                       (Unspecified)
board.cache_hierarchy.ruby_system.L2Cache_Controller.L1_GET_INSTR |         207     12.07%     12.07% |         194     11.31%     23.38% |         191     11.14%     34.52% |         208     12.13%     46.65% |         228     13.29%     59.94% |         227     13.24%     73.18% |         253     14.75%     87.93% |         207     12.07%    100.00% (Unspecified)
board.cache_hierarchy.ruby_system.L2Cache_Controller.L1_GET_INSTR::total         1715                       (Unspecified)
board.cache_hierarchy.ruby_system.L2Cache_Controller.L1_GETS |         282     11.59%     11.59% |         328     13.48%     25.06% |         324     13.31%     38.37% |         290     11.91%     50.29% |         306     12.57%     62.86% |         299     12.28%     75.14% |         315     12.94%     88.09% |         290     11.91%    100.00% (Unspecified)
board.cache_hierarchy.ruby_system.L2Cache_Controller.L1_GETS::total         2434                       (Unspecified)
board.cache_hierarchy.ruby_system.L2Cache_Controller.L1_GETX |          69     13.09%     13.09% |          57     10.82%     23.91% |          59     11.20%     35.10% |          51      9.68%     44.78% |          78     14.80%     59.58% |          86     16.32%     75.90% |          65     12.33%     88.24% |          62     11.76%    100.00% (Unspecified)
board.cache_hierarchy.ruby_system.L2Cache_Controller.L1_GETX::total          527                       (Unspecified)
board.cache_hierarchy.ruby_system.L2Cache_Controller.L1_UPGRADE |           1      0.93%      0.93% |          32     29.63%     30.56% |          25     23.15%     53.70% |           6      5.56%     59.26% |          12     11.11%     70.37% |          17     15.74%     86.11% |          13     12.04%     98.15% |           2      1.85%    100.00% (Unspecified)
board.cache_hierarchy.ruby_system.L2Cache_Controller.L1_UPGRADE::total          108                       (Unspecified)
board.cache_hierarchy.ruby_system.L2Cache_Controller.L1_PUTX |          15      6.70%      6.70% |          23     10.27%     16.96% |          30     13.39%     30.36% |          27     12.05%     42.41% |          39     17.41%     59.82% |          39     17.41%     77.23% |          31     13.84%     91.07% |          20      8.93%    100.00% (Unspecified)
board.cache_hierarchy.ruby_system.L2Cache_Controller.L1_PUTX::total          224                       (Unspecified)
board.cache_hierarchy.ruby_system.L2Cache_Controller.Mem_Data |          92     11.25%     11.25% |         101     12.35%     23.59% |          96     11.74%     35.33% |          93     11.37%     46.70% |         111     13.57%     60.27% |         117     14.30%     74.57% |         107     13.08%     87.65% |         101     12.35%    100.00% (Unspecified)
board.cache_hierarchy.ruby_system.L2Cache_Controller.Mem_Data::total          818                       (Unspecified)
board.cache_hierarchy.ruby_system.L2Cache_Controller.WB_Data |          46     10.18%     10.18% |          89     19.69%     29.87% |          72     15.93%     45.80% |          47     10.40%     56.19% |          49     10.84%     67.04% |          55     12.17%     79.20% |          50     11.06%     90.27% |          44      9.73%    100.00% (Unspecified)
board.cache_hierarchy.ruby_system.L2Cache_Controller.WB_Data::total          452                       (Unspecified)
board.cache_hierarchy.ruby_system.L2Cache_Controller.WB_Data_clean |           7     25.00%     25.00% |           1      3.57%     28.57% |           3     10.71%     39.29% |           8     28.57%     67.86% |           2      7.14%     75.00% |           2      7.14%     82.14% |           3     10.71%     92.86% |           2      7.14%    100.00% (Unspecified)
board.cache_hierarchy.ruby_system.L2Cache_Controller.WB_Data_clean::total           28                       (Unspecified)
board.cache_hierarchy.ruby_system.L2Cache_Controller.Unblock |          53     11.04%     11.04% |          90     18.75%     29.79% |          75     15.62%     45.42% |          55     11.46%     56.88% |          51     10.62%     67.50% |          57     11.88%     79.38% |          53     11.04%     90.42% |          46      9.58%    100.00% (Unspecified)
board.cache_hierarchy.ruby_system.L2Cache_Controller.Unblock::total          480                       (Unspecified)
board.cache_hierarchy.ruby_system.L2Cache_Controller.Exclusive_Unblock |         289     11.65%     11.65% |         319     12.86%     24.51% |         310     12.49%     37.00% |         285     11.49%     48.49% |         331     13.34%     61.83% |         339     13.66%     75.49% |         313     12.62%     88.11% |         295     11.89%    100.00% (Unspecified)
board.cache_hierarchy.ruby_system.L2Cache_Controller.Exclusive_Unblock::total         2481                       (Unspecified)
board.cache_hierarchy.ruby_system.L2Cache_Controller.NP.L1_GET_INSTR |          43     11.35%     11.35% |          45     11.87%     23.22% |          46     12.14%     35.36% |          50     13.19%     48.55% |          51     13.46%     62.01% |          49     12.93%     74.93% |          50     13.19%     88.13% |          45     11.87%    100.00% (Unspecified)
board.cache_hierarchy.ruby_system.L2Cache_Controller.NP.L1_GET_INSTR::total          379                       (Unspecified)
board.cache_hierarchy.ruby_system.L2Cache_Controller.NP.L1_GETS |           1      2.56%      2.56% |          11     28.21%     30.77% |           1      2.56%     33.33% |           1      2.56%     35.90% |          10     25.64%     61.54% |           1      2.56%     64.10% |           5     12.82%     76.92% |           9     23.08%    100.00% (Unspecified)
board.cache_hierarchy.ruby_system.L2Cache_Controller.NP.L1_GETS::total           39                       (Unspecified)
board.cache_hierarchy.ruby_system.L2Cache_Controller.NP.L1_GETX |          48     12.00%     12.00% |          45     11.25%     23.25% |          49     12.25%     35.50% |          42     10.50%     46.00% |          50     12.50%     58.50% |          67     16.75%     75.25% |          52     13.00%     88.25% |          47     11.75%    100.00% (Unspecified)
board.cache_hierarchy.ruby_system.L2Cache_Controller.NP.L1_GETX::total          400                       (Unspecified)
board.cache_hierarchy.ruby_system.L2Cache_Controller.SS.L1_GET_INSTR |         164     12.30%     12.30% |         148     11.10%     23.41% |         145     10.88%     34.28% |         158     11.85%     46.14% |         177     13.28%     59.41% |         178     13.35%     72.77% |         201     15.08%     87.85% |         162     12.15%    100.00% (Unspecified)
board.cache_hierarchy.ruby_system.L2Cache_Controller.SS.L1_GET_INSTR::total         1333                       (Unspecified)
board.cache_hierarchy.ruby_system.L2Cache_Controller.SS.L1_GETS |          10      9.35%      9.35% |           8      7.48%     16.82% |          22     20.56%     37.38% |           7      6.54%     43.93% |          14     13.08%     57.01% |           6      5.61%     62.62% |          27     25.23%     87.85% |          13     12.15%    100.00% (Unspecified)
board.cache_hierarchy.ruby_system.L2Cache_Controller.SS.L1_GETS::total          107                       (Unspecified)
board.cache_hierarchy.ruby_system.L2Cache_Controller.SS.L1_UPGRADE |           1      0.93%      0.93% |          32     29.91%     30.84% |          24     22.43%     53.27% |           6      5.61%     58.88% |          12     11.21%     70.09% |          17     15.89%     85.98% |          13     12.15%     98.13% |           2      1.87%    100.00% (Unspecified)
board.cache_hierarchy.ruby_system.L2Cache_Controller.SS.L1_UPGRADE::total          107                       (Unspecified)
board.cache_hierarchy.ruby_system.L2Cache_Controller.M.L1_GET_INSTR |           0      0.00%      0.00% |           0      0.00%      0.00% |           0      0.00%      0.00% |           0      0.00%      0.00% |           0      0.00%      0.00% |           0      0.00%      0.00% |           1    100.00%    100.00% |           0      0.00%    100.00% (Unspecified)
board.cache_hierarchy.ruby_system.L2Cache_Controller.M.L1_GET_INSTR::total            1                       (Unspecified)
board.cache_hierarchy.ruby_system.L2Cache_Controller.M.L1_GETS |         218     12.06%     12.06% |         219     12.11%     24.17% |         226     12.50%     36.67% |         227     12.56%     49.23% |         231     12.78%     62.00% |         235     13.00%     75.00% |         230     12.72%     87.72% |         222     12.28%    100.00% (Unspecified)
board.cache_hierarchy.ruby_system.L2Cache_Controller.M.L1_GETS::total         1808                       (Unspecified)
board.cache_hierarchy.ruby_system.L2Cache_Controller.M.L1_GETX |           3      9.68%      9.68% |           3      9.68%     19.35% |           3      9.68%     29.03% |           4     12.90%     41.94% |          12     38.71%     80.65% |           1      3.23%     83.87% |           3      9.68%     93.55% |           2      6.45%    100.00% (Unspecified)
board.cache_hierarchy.ruby_system.L2Cache_Controller.M.L1_GETX::total           31                       (Unspecified)
board.cache_hierarchy.ruby_system.L2Cache_Controller.MT.L1_GETS |          53     11.04%     11.04% |          90     18.75%     29.79% |          75     15.62%     45.42% |          55     11.46%     56.88% |          51     10.62%     67.50% |          57     11.88%     79.38% |          53     11.04%     90.42% |          46      9.58%    100.00% (Unspecified)
board.cache_hierarchy.ruby_system.L2Cache_Controller.MT.L1_GETS::total          480                       (Unspecified)
board.cache_hierarchy.ruby_system.L2Cache_Controller.MT.L1_GETX |          18     18.75%     18.75% |           9      9.38%     28.12% |           7      7.29%     35.42% |           5      5.21%     40.62% |          16     16.67%     57.29% |          18     18.75%     76.04% |          10     10.42%     86.46% |          13     13.54%    100.00% (Unspecified)
board.cache_hierarchy.ruby_system.L2Cache_Controller.MT.L1_GETX::total           96                       (Unspecified)
board.cache_hierarchy.ruby_system.L2Cache_Controller.MT.L1_PUTX |          15      6.70%      6.70% |          23     10.27%     16.96% |          30     13.39%     30.36% |          27     12.05%     42.41% |          39     17.41%     59.82% |          39     17.41%     77.23% |          31     13.84%     91.07% |          20      8.93%    100.00% (Unspecified)
board.cache_hierarchy.ruby_system.L2Cache_Controller.MT.L1_PUTX::total          224                       (Unspecified)
board.cache_hierarchy.ruby_system.L2Cache_Controller.ISS.Mem_Data |           1      2.56%      2.56% |          11     28.21%     30.77% |           1      2.56%     33.33% |           1      2.56%     35.90% |          10     25.64%     61.54% |           1      2.56%     64.10% |           5     12.82%     76.92% |           9     23.08%    100.00% (Unspecified)
board.cache_hierarchy.ruby_system.L2Cache_Controller.ISS.Mem_Data::total           39                       (Unspecified)
board.cache_hierarchy.ruby_system.L2Cache_Controller.IS.L1_GET_INSTR |           0      0.00%      0.00% |           1     50.00%     50.00% |           0      0.00%     50.00% |           0      0.00%     50.00% |           0      0.00%     50.00% |           0      0.00%     50.00% |           1     50.00%    100.00% |           0      0.00%    100.00% (Unspecified)
board.cache_hierarchy.ruby_system.L2Cache_Controller.IS.L1_GET_INSTR::total            2                       (Unspecified)
board.cache_hierarchy.ruby_system.L2Cache_Controller.IS.Mem_Data |          43     11.35%     11.35% |          45     11.87%     23.22% |          46     12.14%     35.36% |          50     13.19%     48.55% |          51     13.46%     62.01% |          49     12.93%     74.93% |          50     13.19%     88.13% |          45     11.87%    100.00% (Unspecified)
board.cache_hierarchy.ruby_system.L2Cache_Controller.IS.Mem_Data::total          379                       (Unspecified)
board.cache_hierarchy.ruby_system.L2Cache_Controller.IM.Mem_Data |          48     12.00%     12.00% |          45     11.25%     23.25% |          49     12.25%     35.50% |          42     10.50%     46.00% |          50     12.50%     58.50% |          67     16.75%     75.25% |          52     13.00%     88.25% |          47     11.75%    100.00% (Unspecified)
board.cache_hierarchy.ruby_system.L2Cache_Controller.IM.Mem_Data::total          400                       (Unspecified)
board.cache_hierarchy.ruby_system.L2Cache_Controller.SS_MB.Exclusive_Unblock |           1      0.93%      0.93% |          32     29.91%     30.84% |          24     22.43%     53.27% |           6      5.61%     58.88% |          12     11.21%     70.09% |          17     15.89%     85.98% |          13     12.15%     98.13% |           2      1.87%    100.00% (Unspecified)
board.cache_hierarchy.ruby_system.L2Cache_Controller.SS_MB.Exclusive_Unblock::total          107                       (Unspecified)
board.cache_hierarchy.ruby_system.L2Cache_Controller.MT_MB.Exclusive_Unblock |         288     12.13%     12.13% |         287     12.09%     24.22% |         286     12.05%     36.27% |         279     11.75%     48.02% |         319     13.44%     61.46% |         322     13.56%     75.02% |         300     12.64%     87.66% |         293     12.34%    100.00% (Unspecified)
board.cache_hierarchy.ruby_system.L2Cache_Controller.MT_MB.Exclusive_Unblock::total         2374                       (Unspecified)
board.cache_hierarchy.ruby_system.L2Cache_Controller.MT_IIB.WB_Data |          46     10.65%     10.65% |          75     17.36%     28.01% |          67     15.51%     43.52% |          47     10.88%     54.40% |          49     11.34%     65.74% |          55     12.73%     78.47% |          50     11.57%     90.05% |          43      9.95%    100.00% (Unspecified)
board.cache_hierarchy.ruby_system.L2Cache_Controller.MT_IIB.WB_Data::total          432                       (Unspecified)
board.cache_hierarchy.ruby_system.L2Cache_Controller.MT_IIB.WB_Data_clean |           7     31.82%     31.82% |           1      4.55%     36.36% |           3     13.64%     50.00% |           2      9.09%     59.09% |           2      9.09%     68.18% |           2      9.09%     77.27% |           3     13.64%     90.91% |           2      9.09%    100.00% (Unspecified)
board.cache_hierarchy.ruby_system.L2Cache_Controller.MT_IIB.WB_Data_clean::total           22                       (Unspecified)
board.cache_hierarchy.ruby_system.L2Cache_Controller.MT_IIB.Unblock |           0      0.00%      0.00% |          14     53.85%     53.85% |           5     19.23%     73.08% |           6     23.08%     96.15% |           0      0.00%     96.15% |           0      0.00%     96.15% |           0      0.00%     96.15% |           1      3.85%    100.00% (Unspecified)
board.cache_hierarchy.ruby_system.L2Cache_Controller.MT_IIB.Unblock::total           26                       (Unspecified)
board.cache_hierarchy.ruby_system.L2Cache_Controller.MT_IB.WB_Data |           0      0.00%      0.00% |          14     70.00%     70.00% |           5     25.00%     95.00% |           0      0.00%     95.00% |           0      0.00%     95.00% |           0      0.00%     95.00% |           0      0.00%     95.00% |           1      5.00%    100.00% (Unspecified)
board.cache_hierarchy.ruby_system.L2Cache_Controller.MT_IB.WB_Data::total           20                       (Unspecified)
board.cache_hierarchy.ruby_system.L2Cache_Controller.MT_IB.WB_Data_clean |           0      0.00%      0.00% |           0      0.00%      0.00% |           0      0.00%      0.00% |           6    100.00%    100.00% |           0      0.00%    100.00% |           0      0.00%    100.00% |           0      0.00%    100.00% |           0      0.00%    100.00% (Unspecified)
board.cache_hierarchy.ruby_system.L2Cache_Controller.MT_IB.WB_Data_clean::total            6                       (Unspecified)
board.cache_hierarchy.ruby_system.L2Cache_Controller.MT_SB.L1_UPGRADE |           0      0.00%      0.00% |           0      0.00%      0.00% |           1    100.00%    100.00% |           0      0.00%    100.00% |           0      0.00%    100.00% |           0      0.00%    100.00% |           0      0.00%    100.00% |           0      0.00%    100.00% (Unspecified)
board.cache_hierarchy.ruby_system.L2Cache_Controller.MT_SB.L1_UPGRADE::total            1                       (Unspecified)
board.cache_hierarchy.ruby_system.L2Cache_Controller.MT_SB.Unblock |          53     11.67%     11.67% |          76     16.74%     28.41% |          70     15.42%     43.83% |          49     10.79%     54.63% |          51     11.23%     65.86% |          57     12.56%     78.41% |          53     11.67%     90.09% |          45      9.91%    100.00% (Unspecified)
board.cache_hierarchy.ruby_system.L2Cache_Controller.MT_SB.Unblock::total          454                       (Unspecified)
board.cache_hierarchy.ruby_system.RequestType.LD.latency_hist_seqr::bucket_size           32                       (Unspecified)
board.cache_hierarchy.ruby_system.RequestType.LD.latency_hist_seqr::max_bucket          319                       (Unspecified)
board.cache_hierarchy.ruby_system.RequestType.LD.latency_hist_seqr::samples       306072                       (Unspecified)
board.cache_hierarchy.ruby_system.RequestType.LD.latency_hist_seqr::mean     1.435058                       (Unspecified)
board.cache_hierarchy.ruby_system.RequestType.LD.latency_hist_seqr::gmean     1.031673                       (Unspecified)
board.cache_hierarchy.ruby_system.RequestType.LD.latency_hist_seqr::stdev     5.402940                       (Unspecified)
board.cache_hierarchy.ruby_system.RequestType.LD.latency_hist_seqr |      303889     99.29%     99.29% |        2054      0.67%     99.96% |          90      0.03%     99.99% |           0      0.00%     99.99% |           1      0.00%     99.99% |           3      0.00%     99.99% |          16      0.01%     99.99% |          11      0.00%    100.00% |           8      0.00%    100.00% |           0      0.00%    100.00% (Unspecified)
board.cache_hierarchy.ruby_system.RequestType.LD.latency_hist_seqr::total       306072                       (Unspecified)
board.cache_hierarchy.ruby_system.RequestType.LD.hit_latency_hist_seqr::bucket_size            1                       (Unspecified)
board.cache_hierarchy.ruby_system.RequestType.LD.hit_latency_hist_seqr::max_bucket            9                       (Unspecified)
board.cache_hierarchy.ruby_system.RequestType.LD.hit_latency_hist_seqr::samples       303638                       (Unspecified)
board.cache_hierarchy.ruby_system.RequestType.LD.hit_latency_hist_seqr::mean     1.000010                       (Unspecified)
board.cache_hierarchy.ruby_system.RequestType.LD.hit_latency_hist_seqr::gmean     1.000007                       (Unspecified)
board.cache_hierarchy.ruby_system.RequestType.LD.hit_latency_hist_seqr::stdev     0.003143                       (Unspecified)
board.cache_hierarchy.ruby_system.RequestType.LD.hit_latency_hist_seqr |           0      0.00%      0.00% |      303635    100.00%    100.00% |           3      0.00%    100.00% |           0      0.00%    100.00% |           0      0.00%    100.00% |           0      0.00%    100.00% |           0      0.00%    100.00% |           0      0.00%    100.00% |           0      0.00%    100.00% |           0      0.00%    100.00% (Unspecified)
board.cache_hierarchy.ruby_system.RequestType.LD.hit_latency_hist_seqr::total       303638                       (Unspecified)
board.cache_hierarchy.ruby_system.RequestType.LD.miss_latency_hist_seqr::bucket_size           32                       (Unspecified)
board.cache_hierarchy.ruby_system.RequestType.LD.miss_latency_hist_seqr::max_bucket          319                       (Unspecified)
board.cache_hierarchy.ruby_system.RequestType.LD.miss_latency_hist_seqr::samples         2434                       (Unspecified)
board.cache_hierarchy.ruby_system.RequestType.LD.miss_latency_hist_seqr::mean    55.706656                       (Unspecified)
board.cache_hierarchy.ruby_system.RequestType.LD.miss_latency_hist_seqr::gmean    50.411023                       (Unspecified)
board.cache_hierarchy.ruby_system.RequestType.LD.miss_latency_hist_seqr::stdev    26.496792                       (Unspecified)
board.cache_hierarchy.ruby_system.RequestType.LD.miss_latency_hist_seqr |         251     10.31%     10.31% |        2054     84.39%     94.70% |          90      3.70%     98.40% |           0      0.00%     98.40% |           1      0.04%     98.44% |           3      0.12%     98.56% |          16      0.66%     99.22% |          11      0.45%     99.67% |           8      0.33%    100.00% |           0      0.00%    100.00% (Unspecified)
board.cache_hierarchy.ruby_system.RequestType.LD.miss_latency_hist_seqr::total         2434                       (Unspecified)
board.cache_hierarchy.ruby_system.RequestType.ST.latency_hist_seqr::bucket_size          256                       (Unspecified)
board.cache_hierarchy.ruby_system.RequestType.ST.latency_hist_seqr::max_bucket         2559                       (Unspecified)
board.cache_hierarchy.ruby_system.RequestType.ST.latency_hist_seqr::samples       178878                       (Unspecified)
board.cache_hierarchy.ruby_system.RequestType.ST.latency_hist_seqr::mean     1.511293                       (Unspecified)
board.cache_hierarchy.ruby_system.RequestType.ST.latency_hist_seqr::gmean     1.016224                       (Unspecified)
board.cache_hierarchy.ruby_system.RequestType.ST.latency_hist_seqr::stdev    11.389197                       (Unspecified)
board.cache_hierarchy.ruby_system.RequestType.ST.latency_hist_seqr |      178863     99.99%     99.99% |          10      0.01%    100.00% |           0      0.00%    100.00% |           0      0.00%    100.00% |           2      0.00%    100.00% |           3      0.00%    100.00% |           0      0.00%    100.00% |           0      0.00%    100.00% |           0      0.00%    100.00% |           0      0.00%    100.00% (Unspecified)
board.cache_hierarchy.ruby_system.RequestType.ST.latency_hist_seqr::total       178878                       (Unspecified)
board.cache_hierarchy.ruby_system.RequestType.ST.hit_latency_hist_seqr::bucket_size           32                       (Unspecified)
board.cache_hierarchy.ruby_system.RequestType.ST.hit_latency_hist_seqr::max_bucket          319                       (Unspecified)
board.cache_hierarchy.ruby_system.RequestType.ST.hit_latency_hist_seqr::samples       178340                       (Unspecified)
board.cache_hierarchy.ruby_system.RequestType.ST.hit_latency_hist_seqr::mean     1.004620                       (Unspecified)
board.cache_hierarchy.ruby_system.RequestType.ST.hit_latency_hist_seqr::gmean     1.001105                       (Unspecified)
board.cache_hierarchy.ruby_system.RequestType.ST.hit_latency_hist_seqr::stdev     0.718531                       (Unspecified)
board.cache_hierarchy.ruby_system.RequestType.ST.hit_latency_hist_seqr |      178336    100.00%    100.00% |           1      0.00%    100.00% |           0      0.00%    100.00% |           0      0.00%    100.00% |           1      0.00%    100.00% |           1      0.00%    100.00% |           1      0.00%    100.00% |           0      0.00%    100.00% |           0      0.00%    100.00% |           0      0.00%    100.00% (Unspecified)
board.cache_hierarchy.ruby_system.RequestType.ST.hit_latency_hist_seqr::total       178340                       (Unspecified)
board.cache_hierarchy.ruby_system.RequestType.ST.miss_latency_hist_seqr::bucket_size          256                       (Unspecified)
board.cache_hierarchy.ruby_system.RequestType.ST.miss_latency_hist_seqr::max_bucket         2559                       (Unspecified)
board.cache_hierarchy.ruby_system.RequestType.ST.miss_latency_hist_seqr::samples          538                       (Unspecified)
board.cache_hierarchy.ruby_system.RequestType.ST.miss_latency_hist_seqr::mean   169.466543                       (Unspecified)
board.cache_hierarchy.ruby_system.RequestType.ST.miss_latency_hist_seqr::gmean   146.209073                       (Unspecified)
board.cache_hierarchy.ruby_system.RequestType.ST.miss_latency_hist_seqr::stdev   121.202356                       (Unspecified)
board.cache_hierarchy.ruby_system.RequestType.ST.miss_latency_hist_seqr |         523     97.21%     97.21% |          10      1.86%     99.07% |           0      0.00%     99.07% |           0      0.00%     99.07% |           2      0.37%     99.44% |           3      0.56%    100.00% |           0      0.00%    100.00% |           0      0.00%    100.00% |           0      0.00%    100.00% |           0      0.00%    100.00% (Unspecified)
board.cache_hierarchy.ruby_system.RequestType.ST.miss_latency_hist_seqr::total          538                       (Unspecified)
board.cache_hierarchy.ruby_system.RequestType.IFETCH.latency_hist_seqr::bucket_size          128                       (Unspecified)
board.cache_hierarchy.ruby_system.RequestType.IFETCH.latency_hist_seqr::max_bucket         1279                       (Unspecified)
board.cache_hierarchy.ruby_system.RequestType.IFETCH.latency_hist_seqr::samples       542166                       (Unspecified)
board.cache_hierarchy.ruby_system.RequestType.IFETCH.latency_hist_seqr::mean     1.266276                       (Unspecified)
board.cache_hierarchy.ruby_system.RequestType.IFETCH.latency_hist_seqr::gmean     1.013238                       (Unspecified)
board.cache_hierarchy.ruby_system.RequestType.IFETCH.latency_hist_seqr::stdev     6.807536                       (Unspecified)
board.cache_hierarchy.ruby_system.RequestType.IFETCH.latency_hist_seqr |      541786     99.93%     99.93% |         362      0.07%    100.00% |          13      0.00%    100.00% |           0      0.00%    100.00% |           0      0.00%    100.00% |           0      0.00%    100.00% |           0      0.00%    100.00% |           0      0.00%    100.00% |           0      0.00%    100.00% |           5      0.00%    100.00% (Unspecified)
board.cache_hierarchy.ruby_system.RequestType.IFETCH.latency_hist_seqr::total       542166                       (Unspecified)
board.cache_hierarchy.ruby_system.RequestType.IFETCH.hit_latency_hist_seqr::bucket_size            1                       (Unspecified)
board.cache_hierarchy.ruby_system.RequestType.IFETCH.hit_latency_hist_seqr::max_bucket            9                       (Unspecified)
board.cache_hierarchy.ruby_system.RequestType.IFETCH.hit_latency_hist_seqr::samples       540451                       (Unspecified)
board.cache_hierarchy.ruby_system.RequestType.IFETCH.hit_latency_hist_seqr::mean            1                       (Unspecified)
board.cache_hierarchy.ruby_system.RequestType.IFETCH.hit_latency_hist_seqr::gmean            1                       (Unspecified)
board.cache_hierarchy.ruby_system.RequestType.IFETCH.hit_latency_hist_seqr |           0      0.00%      0.00% |      540451    100.00%    100.00% |           0      0.00%    100.00% |           0      0.00%    100.00% |           0      0.00%    100.00% |           0      0.00%    100.00% |           0      0.00%    100.00% |           0      0.00%    100.00% |           0      0.00%    100.00% |           0      0.00%    100.00% (Unspecified)
board.cache_hierarchy.ruby_system.RequestType.IFETCH.hit_latency_hist_seqr::total       540451                       (Unspecified)
board.cache_hierarchy.ruby_system.RequestType.IFETCH.miss_latency_hist_seqr::bucket_size          128                       (Unspecified)
board.cache_hierarchy.ruby_system.RequestType.IFETCH.miss_latency_hist_seqr::max_bucket         1279                       (Unspecified)
board.cache_hierarchy.ruby_system.RequestType.IFETCH.miss_latency_hist_seqr::samples         1715                       (Unspecified)
board.cache_hierarchy.ruby_system.RequestType.IFETCH.miss_latency_hist_seqr::mean    85.178426                       (Unspecified)
board.cache_hierarchy.ruby_system.RequestType.IFETCH.miss_latency_hist_seqr::gmean    63.902075                       (Unspecified)
board.cache_hierarchy.ruby_system.RequestType.IFETCH.miss_latency_hist_seqr::stdev    87.127247                       (Unspecified)
board.cache_hierarchy.ruby_system.RequestType.IFETCH.miss_latency_hist_seqr |        1335     77.84%     77.84% |         362     21.11%     98.95% |          13      0.76%     99.71% |           0      0.00%     99.71% |           0      0.00%     99.71% |           0      0.00%     99.71% |           0      0.00%     99.71% |           0      0.00%     99.71% |           0      0.00%     99.71% |           5      0.29%    100.00% (Unspecified)
board.cache_hierarchy.ruby_system.RequestType.IFETCH.miss_latency_hist_seqr::total         1715                       (Unspecified)
board.cache_hierarchy.ruby_system.RequestType.RMW_Read.latency_hist_seqr::bucket_size           32                       (Unspecified)
board.cache_hierarchy.ruby_system.RequestType.RMW_Read.latency_hist_seqr::max_bucket          319                       (Unspecified)
board.cache_hierarchy.ruby_system.RequestType.RMW_Read.latency_hist_seqr::samples        32991                       (Unspecified)
board.cache_hierarchy.ruby_system.RequestType.RMW_Read.latency_hist_seqr::mean     1.055288                       (Unspecified)
board.cache_hierarchy.ruby_system.RequestType.RMW_Read.latency_hist_seqr::gmean     1.002506                       (Unspecified)
board.cache_hierarchy.ruby_system.RequestType.RMW_Read.latency_hist_seqr::stdev     2.839610                       (Unspecified)
board.cache_hierarchy.ruby_system.RequestType.RMW_Read.latency_hist_seqr |       32975     99.95%     99.95% |           1      0.00%     99.95% |          10      0.03%     99.98% |           0      0.00%     99.98% |           0      0.00%     99.98% |           2      0.01%     99.99% |           2      0.01%    100.00% |           1      0.00%    100.00% |           0      0.00%    100.00% |           0      0.00%    100.00% (Unspecified)
board.cache_hierarchy.ruby_system.RequestType.RMW_Read.latency_hist_seqr::total        32991                       (Unspecified)
board.cache_hierarchy.ruby_system.RequestType.RMW_Read.hit_latency_hist_seqr::bucket_size            1                       (Unspecified)
board.cache_hierarchy.ruby_system.RequestType.RMW_Read.hit_latency_hist_seqr::max_bucket            9                       (Unspecified)
board.cache_hierarchy.ruby_system.RequestType.RMW_Read.hit_latency_hist_seqr::samples        32975                       (Unspecified)
board.cache_hierarchy.ruby_system.RequestType.RMW_Read.hit_latency_hist_seqr::mean     1.000394                       (Unspecified)
board.cache_hierarchy.ruby_system.RequestType.RMW_Read.hit_latency_hist_seqr::gmean     1.000273                       (Unspecified)
board.cache_hierarchy.ruby_system.RequestType.RMW_Read.hit_latency_hist_seqr::stdev     0.019852                       (Unspecified)
board.cache_hierarchy.ruby_system.RequestType.RMW_Read.hit_latency_hist_seqr |           0      0.00%      0.00% |       32962     99.96%     99.96% |          13      0.04%    100.00% |           0      0.00%    100.00% |           0      0.00%    100.00% |           0      0.00%    100.00% |           0      0.00%    100.00% |           0      0.00%    100.00% |           0      0.00%    100.00% |           0      0.00%    100.00% (Unspecified)
board.cache_hierarchy.ruby_system.RequestType.RMW_Read.hit_latency_hist_seqr::total        32975                       (Unspecified)
board.cache_hierarchy.ruby_system.RequestType.RMW_Read.miss_latency_hist_seqr::bucket_size           32                       (Unspecified)
board.cache_hierarchy.ruby_system.RequestType.RMW_Read.miss_latency_hist_seqr::max_bucket          319                       (Unspecified)
board.cache_hierarchy.ruby_system.RequestType.RMW_Read.miss_latency_hist_seqr::samples           16                       (Unspecified)
board.cache_hierarchy.ruby_system.RequestType.RMW_Read.miss_latency_hist_seqr::mean   114.187500                       (Unspecified)
board.cache_hierarchy.ruby_system.RequestType.RMW_Read.miss_latency_hist_seqr::gmean    99.304453                       (Unspecified)
board.cache_hierarchy.ruby_system.RequestType.RMW_Read.miss_latency_hist_seqr::stdev    63.831255                       (Unspecified)
board.cache_hierarchy.ruby_system.RequestType.RMW_Read.miss_latency_hist_seqr |           0      0.00%      0.00% |           1      6.25%      6.25% |          10     62.50%     68.75% |           0      0.00%     68.75% |           0      0.00%     68.75% |           2     12.50%     81.25% |           2     12.50%     93.75% |           1      6.25%    100.00% |           0      0.00%    100.00% |           0      0.00%    100.00% (Unspecified)
board.cache_hierarchy.ruby_system.RequestType.RMW_Read.miss_latency_hist_seqr::total           16                       (Unspecified)
board.cache_hierarchy.ruby_system.RequestType.Locked_RMW_Read.latency_hist_seqr::bucket_size           16                       (Unspecified)
board.cache_hierarchy.ruby_system.RequestType.Locked_RMW_Read.latency_hist_seqr::max_bucket          159                       (Unspecified)
board.cache_hierarchy.ruby_system.RequestType.Locked_RMW_Read.latency_hist_seqr::samples        33152                       (Unspecified)
board.cache_hierarchy.ruby_system.RequestType.Locked_RMW_Read.latency_hist_seqr::mean     1.147683                       (Unspecified)
board.cache_hierarchy.ruby_system.RequestType.Locked_RMW_Read.latency_hist_seqr::gmean     1.009756                       (Unspecified)
board.cache_hierarchy.ruby_system.RequestType.Locked_RMW_Read.latency_hist_seqr::stdev     3.193096                       (Unspecified)
board.cache_hierarchy.ruby_system.RequestType.Locked_RMW_Read.latency_hist_seqr |       33080     99.78%     99.78% |           0      0.00%     99.78% |           7      0.02%     99.80% |          29      0.09%     99.89% |          11      0.03%     99.92% |          24      0.07%    100.00% |           1      0.00%    100.00% |           0      0.00%    100.00% |           0      0.00%    100.00% |           0      0.00%    100.00% (Unspecified)
board.cache_hierarchy.ruby_system.RequestType.Locked_RMW_Read.latency_hist_seqr::total        33152                       (Unspecified)
board.cache_hierarchy.ruby_system.RequestType.Locked_RMW_Read.hit_latency_hist_seqr::bucket_size            1                       (Unspecified)
board.cache_hierarchy.ruby_system.RequestType.Locked_RMW_Read.hit_latency_hist_seqr::max_bucket            9                       (Unspecified)
board.cache_hierarchy.ruby_system.RequestType.Locked_RMW_Read.hit_latency_hist_seqr::samples        33072                       (Unspecified)
board.cache_hierarchy.ruby_system.RequestType.Locked_RMW_Read.hit_latency_hist_seqr::mean            1                       (Unspecified)
board.cache_hierarchy.ruby_system.RequestType.Locked_RMW_Read.hit_latency_hist_seqr::gmean            1                       (Unspecified)
board.cache_hierarchy.ruby_system.RequestType.Locked_RMW_Read.hit_latency_hist_seqr |           0      0.00%      0.00% |       33072    100.00%    100.00% |           0      0.00%    100.00% |           0      0.00%    100.00% |           0      0.00%    100.00% |           0      0.00%    100.00% |           0      0.00%    100.00% |           0      0.00%    100.00% |           0      0.00%    100.00% |           0      0.00%    100.00% (Unspecified)
board.cache_hierarchy.ruby_system.RequestType.Locked_RMW_Read.hit_latency_hist_seqr::total        33072                       (Unspecified)
board.cache_hierarchy.ruby_system.RequestType.Locked_RMW_Read.miss_latency_hist_seqr::bucket_size           16                       (Unspecified)
board.cache_hierarchy.ruby_system.RequestType.Locked_RMW_Read.miss_latency_hist_seqr::max_bucket          159                       (Unspecified)
board.cache_hierarchy.ruby_system.RequestType.Locked_RMW_Read.miss_latency_hist_seqr::samples           80                       (Unspecified)
board.cache_hierarchy.ruby_system.RequestType.Locked_RMW_Read.miss_latency_hist_seqr::mean    62.200000                       (Unspecified)
board.cache_hierarchy.ruby_system.RequestType.Locked_RMW_Read.miss_latency_hist_seqr::gmean    55.886622                       (Unspecified)
board.cache_hierarchy.ruby_system.RequestType.Locked_RMW_Read.miss_latency_hist_seqr::stdev    22.244556                       (Unspecified)
board.cache_hierarchy.ruby_system.RequestType.Locked_RMW_Read.miss_latency_hist_seqr |           8     10.00%     10.00% |           0      0.00%     10.00% |           7      8.75%     18.75% |          29     36.25%     55.00% |          11     13.75%     68.75% |          24     30.00%     98.75% |           1      1.25%    100.00% |           0      0.00%    100.00% |           0      0.00%    100.00% |           0      0.00%    100.00% (Unspecified)
board.cache_hierarchy.ruby_system.RequestType.Locked_RMW_Read.miss_latency_hist_seqr::total           80                       (Unspecified)
board.cache_hierarchy.ruby_system.RequestType.Locked_RMW_Write.latency_hist_seqr::bucket_size            1                       (Unspecified)
board.cache_hierarchy.ruby_system.RequestType.Locked_RMW_Write.latency_hist_seqr::max_bucket            9                       (Unspecified)
board.cache_hierarchy.ruby_system.RequestType.Locked_RMW_Write.latency_hist_seqr::samples        33152                       (Unspecified)
board.cache_hierarchy.ruby_system.RequestType.Locked_RMW_Write.latency_hist_seqr::mean            1                       (Unspecified)
board.cache_hierarchy.ruby_system.RequestType.Locked_RMW_Write.latency_hist_seqr::gmean            1                       (Unspecified)
board.cache_hierarchy.ruby_system.RequestType.Locked_RMW_Write.latency_hist_seqr |           0      0.00%      0.00% |       33152    100.00%    100.00% |           0      0.00%    100.00% |           0      0.00%    100.00% |           0      0.00%    100.00% |           0      0.00%    100.00% |           0      0.00%    100.00% |           0      0.00%    100.00% |           0      0.00%    100.00% |           0      0.00%    100.00% (Unspecified)
board.cache_hierarchy.ruby_system.RequestType.Locked_RMW_Write.latency_hist_seqr::total        33152                       (Unspecified)
board.cache_hierarchy.ruby_system.RequestType.Locked_RMW_Write.hit_latency_hist_seqr::bucket_size            1                       (Unspecified)
board.cache_hierarchy.ruby_system.RequestType.Locked_RMW_Write.hit_latency_hist_seqr::max_bucket            9                       (Unspecified)
board.cache_hierarchy.ruby_system.RequestType.Locked_RMW_Write.hit_latency_hist_seqr::samples        33152                       (Unspecified)
board.cache_hierarchy.ruby_system.RequestType.Locked_RMW_Write.hit_latency_hist_seqr::mean            1                       (Unspecified)
board.cache_hierarchy.ruby_system.RequestType.Locked_RMW_Write.hit_latency_hist_seqr::gmean            1                       (Unspecified)
board.cache_hierarchy.ruby_system.RequestType.Locked_RMW_Write.hit_latency_hist_seqr |           0      0.00%      0.00% |       33152    100.00%    100.00% |           0      0.00%    100.00% |           0      0.00%    100.00% |           0      0.00%    100.00% |           0      0.00%    100.00% |           0      0.00%    100.00% |           0      0.00%    100.00% |           0      0.00%    100.00% |           0      0.00%    100.00% (Unspecified)
board.cache_hierarchy.ruby_system.RequestType.Locked_RMW_Write.hit_latency_hist_seqr::total        33152                       (Unspecified)
board.cache_hierarchy.ruby_system.directory_controllers.power_state.pwrStateResidencyTicks::UNDEFINED    401240358                       # Cumulative time (in ticks) in various power states (Tick)
board.cache_hierarchy.ruby_system.directory_controllers.requestToDir.m_msg_count          818                       # Number of messages passed the buffer (Count)
board.cache_hierarchy.ruby_system.directory_controllers.requestToDir.m_buf_msgs     0.001914                       # Average number of messages in buffer ((Count/Tick))
board.cache_hierarchy.ruby_system.directory_controllers.requestToMemory.m_msg_count          818                       # Number of messages passed the buffer (Count)
board.cache_hierarchy.ruby_system.directory_controllers.requestToMemory.m_buf_msgs     0.001921                       # Average number of messages in buffer ((Count/Tick))
board.cache_hierarchy.ruby_system.directory_controllers.requestToMemory.m_stall_time          999                       # Total number of ticks messages were stalled in this buffer (Tick)
board.cache_hierarchy.ruby_system.directory_controllers.requestToMemory.m_avg_stall_time     1.221271                       # Average stall ticks per message ((Tick/Count))
board.cache_hierarchy.ruby_system.directory_controllers.responseFromDir.m_msg_count          818                       # Number of messages passed the buffer (Count)
board.cache_hierarchy.ruby_system.directory_controllers.responseFromDir.m_buf_msgs     0.001914                       # Average number of messages in buffer ((Count/Tick))
board.cache_hierarchy.ruby_system.directory_controllers.responseFromMemory.m_msg_count          818                       # Number of messages passed the buffer (Count)
board.cache_hierarchy.ruby_system.directory_controllers.responseFromMemory.m_buf_msgs     0.002846                       # Average number of messages in buffer ((Count/Tick))
board.cache_hierarchy.ruby_system.l1_controllers0.fullyBusyCycles           60                       # cycles for which number of transistions == max transitions (Unspecified)
board.cache_hierarchy.ruby_system.l1_controllers0.delayHistogram::samples         1325                       # delay_histogram (Unspecified)
board.cache_hierarchy.ruby_system.l1_controllers0.delayHistogram::mean     0.105660                       # delay_histogram (Unspecified)
board.cache_hierarchy.ruby_system.l1_controllers0.delayHistogram::stdev     0.913646                       # delay_histogram (Unspecified)
board.cache_hierarchy.ruby_system.l1_controllers0.delayHistogram::0-1         1302     98.26%     98.26% # delay_histogram (Unspecified)
board.cache_hierarchy.ruby_system.l1_controllers0.delayHistogram::2-3            4      0.30%     98.57% # delay_histogram (Unspecified)
board.cache_hierarchy.ruby_system.l1_controllers0.delayHistogram::4-5            5      0.38%     98.94% # delay_histogram (Unspecified)
board.cache_hierarchy.ruby_system.l1_controllers0.delayHistogram::6-7            6      0.45%     99.40% # delay_histogram (Unspecified)
board.cache_hierarchy.ruby_system.l1_controllers0.delayHistogram::8-9            6      0.45%     99.85% # delay_histogram (Unspecified)
board.cache_hierarchy.ruby_system.l1_controllers0.delayHistogram::10-11            1      0.08%     99.92% # delay_histogram (Unspecified)
board.cache_hierarchy.ruby_system.l1_controllers0.delayHistogram::18-19            1      0.08%    100.00% # delay_histogram (Unspecified)
board.cache_hierarchy.ruby_system.l1_controllers0.delayHistogram::total         1325                       # delay_histogram (Unspecified)
board.cache_hierarchy.ruby_system.l1_controllers0.L1Dcache.m_demand_hits        17843                       # Number of cache demand hits (Unspecified)
board.cache_hierarchy.ruby_system.l1_controllers0.L1Dcache.m_demand_misses          325                       # Number of cache demand misses (Unspecified)
board.cache_hierarchy.ruby_system.l1_controllers0.L1Dcache.m_demand_accesses        18168                       # Number of cache demand accesses (Unspecified)
board.cache_hierarchy.ruby_system.l1_controllers0.L1Icache.m_demand_hits        11208                       # Number of cache demand hits (Unspecified)
board.cache_hierarchy.ruby_system.l1_controllers0.L1Icache.m_demand_misses          321                       # Number of cache demand misses (Unspecified)
board.cache_hierarchy.ruby_system.l1_controllers0.L1Icache.m_demand_accesses        11529                       # Number of cache demand accesses (Unspecified)
board.cache_hierarchy.ruby_system.l1_controllers0.mandatoryQueue.m_msg_count        29697                       # Number of messages passed the buffer (Count)
board.cache_hierarchy.ruby_system.l1_controllers0.mandatoryQueue.m_buf_msgs     0.069566                       # Average number of messages in buffer ((Count/Tick))
board.cache_hierarchy.ruby_system.l1_controllers0.mandatoryQueue.m_stall_time        11322                       # Total number of ticks messages were stalled in this buffer (Tick)
board.cache_hierarchy.ruby_system.l1_controllers0.mandatoryQueue.m_stall_count            1                       # Number of times messages were stalled (Count)
board.cache_hierarchy.ruby_system.l1_controllers0.mandatoryQueue.m_avg_stall_time     0.381251                       # Average stall ticks per message ((Tick/Count))
board.cache_hierarchy.ruby_system.l1_controllers0.power_state.pwrStateResidencyTicks::UNDEFINED    401240358                       # Cumulative time (in ticks) in various power states (Tick)
board.cache_hierarchy.ruby_system.l1_controllers0.prefetcher.RubyPrefetcher.numMissObserved            0                       # Number of misses observed (Unspecified)
board.cache_hierarchy.ruby_system.l1_controllers0.prefetcher.RubyPrefetcher.numAllocatedStreams            0                       # Number of streams allocated for prefetching (Unspecified)
board.cache_hierarchy.ruby_system.l1_controllers0.prefetcher.RubyPrefetcher.numPrefetchRequested            0                       # Number of prefetch requests made (Unspecified)
[...]
board.processor.cores8.core.decode.idleCycles        37730                       # Number of cycles decode is idle (Cycle)
board.processor.cores8.core.decode.blockedCycles       193042                       # Number of cycles decode is blocked (Cycle)
board.processor.cores8.core.decode.runCycles        74189                       # Number of cycles decode is running (Cycle)
board.processor.cores8.core.decode.unblockCycles        17228                       # Number of cycles decode is unblocking (Cycle)
board.processor.cores8.core.decode.squashCycles         4235                       # Number of cycles decode is squashing (Cycle)
board.processor.cores8.core.decode.branchResolved        20921                       # Number of times decode resolved a branch (Count)
board.processor.cores8.core.decode.branchMispred          114                       # Number of times decode detected a branch misprediction (Count)
board.processor.cores8.core.decode.decodedInsts       679450                       # Number of instructions handled by decode (Count)
board.processor.cores8.core.decode.squashedInsts          576                       # Number of squashed instructions handled by decode (Count)
board.processor.cores8.core.executeStats0.numInsts       440052                       # Number of executed instructions (Count)
board.processor.cores8.core.executeStats0.numNop            0                       # Number of nop insts executed (Count)
board.processor.cores8.core.executeStats0.numBranches        25254                       # Number of branches executed (Count)
board.processor.cores8.core.executeStats0.numLoadInsts       111361                       # Number of load instructions executed (Count)
board.processor.cores8.core.executeStats0.numStoreInsts        33285                       # Number of stores executed (Count)
board.processor.cores8.core.executeStats0.instRate     1.339286                       # Inst execution rate ((Count/Cycle))
board.processor.cores8.core.executeStats0.numCCRegReads        67638                       # Number of times the CC registers were read (Count)
board.processor.cores8.core.executeStats0.numCCRegWrites       107869                       # Number of times the CC registers were written (Count)
board.processor.cores8.core.executeStats0.numFpRegReads           15                       # Number of times the floating registers were read (Count)
board.processor.cores8.core.executeStats0.numFpRegWrites           10                       # Number of times the floating registers were written (Count)
board.processor.cores8.core.executeStats0.numIntRegReads       485031                       # Number of times the integer registers were read (Count)
board.processor.cores8.core.executeStats0.numIntRegWrites       356291                       # Number of times the integer registers were written (Count)
board.processor.cores8.core.executeStats0.numMemRefs       144646                       # Number of memory refs (Count)
board.processor.cores8.core.executeStats0.numMiscRegReads       199146                       # Number of times the Misc registers were read (Count)
board.processor.cores8.core.executeStats0.numMiscRegWrites            1                       # Number of times the Misc registers were written (Count)
board.processor.cores8.core.executeStats0.numVecAluAccesses            0                       # Number of vector alu accesses (Count)
board.processor.cores8.core.executeStats0.numDiscardedOps            0                       # Number of ops (including micro ops) which were discarded before commit (Count)
board.processor.cores8.core.fetch.predictedBranches        37427                       # Number of branches that fetch has predicted taken (Count)
board.processor.cores8.core.fetch.cycles       251386                       # Number of cycles fetch has run and was not squashing or blocked (Cycle)
board.processor.cores8.core.fetch.squashCycles         8694                       # Number of cycles fetch has spent squashing (Cycle)
board.processor.cores8.core.fetch.miscStallCycles           30                       # Number of cycles fetch has spent waiting on interrupts, or bad addresses, or out of MSHRs (Cycle)
board.processor.cores8.core.fetch.pendingTrapStallCycles          173                       # Number of stall cycles due to pending traps (Cycle)
board.processor.cores8.core.fetch.cacheLines        66332                       # Number of cache lines fetched (Count)
board.processor.cores8.core.fetch.icacheSquashes         4195                       # Number of outstanding Icache misses that were squashed (Count)
board.processor.cores8.core.fetch.nisnDist::samples       326424                       # Number of instructions fetched each cycle (Total) (Count)
board.processor.cores8.core.fetch.nisnDist::mean     2.386911                       # Number of instructions fetched each cycle (Total) (Count)
board.processor.cores8.core.fetch.nisnDist::stdev     3.360265                       # Number of instructions fetched each cycle (Total) (Count)
board.processor.cores8.core.fetch.nisnDist::underflows            0      0.00%      0.00% # Number of instructions fetched each cycle (Total) (Count)
board.processor.cores8.core.fetch.nisnDist::0       206235     63.18%     63.18% # Number of instructions fetched each cycle (Total) (Count)
board.processor.cores8.core.fetch.nisnDist::1           68      0.02%     63.20% # Number of instructions fetched each cycle (Total) (Count)
board.processor.cores8.core.fetch.nisnDist::2         8220      2.52%     65.72% # Number of instructions fetched each cycle (Total) (Count)
board.processor.cores8.core.fetch.nisnDist::3        12362      3.79%     69.51% # Number of instructions fetched each cycle (Total) (Count)
board.processor.cores8.core.fetch.nisnDist::4         4180      1.28%     70.79% # Number of instructions fetched each cycle (Total) (Count)
board.processor.cores8.core.fetch.nisnDist::5          149      0.05%     70.83% # Number of instructions fetched each cycle (Total) (Count)
board.processor.cores8.core.fetch.nisnDist::6        20588      6.31%     77.14% # Number of instructions fetched each cycle (Total) (Count)
board.processor.cores8.core.fetch.nisnDist::7        12418      3.80%     80.94% # Number of instructions fetched each cycle (Total) (Count)
board.processor.cores8.core.fetch.nisnDist::8        62204     19.06%    100.00% # Number of instructions fetched each cycle (Total) (Count)
board.processor.cores8.core.fetch.nisnDist::overflows            0      0.00%    100.00% # Number of instructions fetched each cycle (Total) (Count)
board.processor.cores8.core.fetch.nisnDist::min_value            0                       # Number of instructions fetched each cycle (Total) (Count)
board.processor.cores8.core.fetch.nisnDist::max_value            8                       # Number of instructions fetched each cycle (Total) (Count)
board.processor.cores8.core.fetch.nisnDist::total       326424                       # Number of instructions fetched each cycle (Total) (Count)
board.processor.cores8.core.fetchStats0.numInsts       467082                       # Number of instructions fetched (thread level) (Count)
board.processor.cores8.core.fetchStats0.numOps            0                       # Number of ops (including micro ops) fetched (thread level) (Count)
board.processor.cores8.core.fetchStats0.fetchRate     1.421551                       # Number of inst fetches per cycle ((Count/Cycle))
board.processor.cores8.core.fetchStats0.numBranches        50204                       # Number of branches fetched (Count)
board.processor.cores8.core.fetchStats0.branchRate     0.152795                       # Number of branch fetches per cycle (Ratio)
board.processor.cores8.core.fetchStats0.icacheStallCycles        70488                       # ICache total stall cycles (Cycle)
board.processor.cores8.core.fetchStats0.numFetchSuspends            0                       # Number of times Execute suspended instruction fetching (Count)
board.processor.cores8.core.iew.idleCycles            0                       # Number of cycles IEW is idle (Cycle)
board.processor.cores8.core.iew.squashCycles         4235                       # Number of cycles IEW is squashing (Cycle)
board.processor.cores8.core.iew.blockCycles       110379                       # Number of cycles IEW is blocking (Cycle)
board.processor.cores8.core.iew.unblockCycles         9325                       # Number of cycles IEW is unblocking (Cycle)
board.processor.cores8.core.iew.dispatchedInsts       613171                       # Number of instructions dispatched to IQ (Count)
board.processor.cores8.core.iew.dispSquashedInsts           16                       # Number of squashed instructions skipped by dispatch (Count)
board.processor.cores8.core.iew.dispLoadInsts       152569                       # Number of dispatched load instructions (Count)
board.processor.cores8.core.iew.dispStoreInsts        49721                       # Number of dispatched store instructions (Count)
board.processor.cores8.core.iew.dispNonSpecInsts         8213                       # Number of dispatched non-speculative instructions (Count)
board.processor.cores8.core.iew.iqFullEvents           20                       # Number of times the IQ has become full, causing a stall (Count)
board.processor.cores8.core.iew.lsqFullEvents          868                       # Number of times the LSQ has become full, causing a stall (Count)
board.processor.cores8.core.iew.memOrderViolationEvents         4105                       # Number of memory order violations (Count)
board.processor.cores8.core.iew.predictedTakenIncorrect            7                       # Number of branches that were predicted taken incorrectly (Count)
board.processor.cores8.core.iew.predictedNotTakenIncorrect          131                       # Number of branches that were predicted not taken incorrectly (Count)
board.processor.cores8.core.iew.branchMispredicts          138                       # Number of branch mispredicts detected at execute (Count)
board.processor.cores8.core.iew.instsToCommit       440014                       # Cumulative count of insts sent to commit (Count)
board.processor.cores8.core.iew.writebackCount       439881                       # Cumulative count of insts written-back (Count)
board.processor.cores8.core.iew.producerInst       326936                       # Number of instructions producing a value (Count)
board.processor.cores8.core.iew.consumerInst       475761                       # Number of instructions consuming a value (Count)
board.processor.cores8.core.iew.wbRate       1.338766                       # Insts written-back per cycle ((Count/Cycle))
board.processor.cores8.core.iew.wbFanout     0.687185                       # Average fanout of values written-back ((Count/Count))
board.processor.cores8.core.interrupts.clk_domain.clock         5328                       # Clock period in ticks (Tick)
board.processor.cores8.core.lsq0.forwLoads         8369                       # Number of loads that had data forwarded from stores (Count)
board.processor.cores8.core.lsq0.squashedLoads        86462                       # Number of loads squashed (Count)
board.processor.cores8.core.lsq0.ignoredResponses            0                       # Number of memory responses ignored because the instruction is squashed (Count)
board.processor.cores8.core.lsq0.memOrderViolation         4105                       # Number of memory ordering violations (Count)
board.processor.cores8.core.lsq0.squashedStores        24704                       # Number of stores squashed (Count)
board.processor.cores8.core.lsq0.rescheduledLoads            0                       # Number of loads that were rescheduled (Count)
board.processor.cores8.core.lsq0.blockedByCache            0                       # Number of times an access to memory failed due to the cache being blocked (Count)
board.processor.cores8.core.lsq0.loadToUse::samples        66107                       # Distribution of cycle latency between the first time a load is issued and its completion (Unspecified)
board.processor.cores8.core.lsq0.loadToUse::mean     3.129956                       # Distribution of cycle latency between the first time a load is issued and its completion (Unspecified)
board.processor.cores8.core.lsq0.loadToUse::stdev     4.050842                       # Distribution of cycle latency between the first time a load is issued and its completion (Unspecified)
board.processor.cores8.core.lsq0.loadToUse::0-9        65814     99.56%     99.56% # Distribution of cycle latency between the first time a load is issued and its completion (Unspecified)
board.processor.cores8.core.lsq0.loadToUse::10-19            6      0.01%     99.57% # Distribution of cycle latency between the first time a load is issued and its completion (Unspecified)
board.processor.cores8.core.lsq0.loadToUse::40-49           29      0.04%     99.61% # Distribution of cycle latency between the first time a load is issued and its completion (Unspecified)
board.processor.cores8.core.lsq0.loadToUse::50-59           47      0.07%     99.68% # Distribution of cycle latency between the first time a load is issued and its completion (Unspecified)
board.processor.cores8.core.lsq0.loadToUse::60-69          198      0.30%     99.98% # Distribution of cycle latency between the first time a load is issued and its completion (Unspecified)
board.processor.cores8.core.lsq0.loadToUse::80-89           10      0.02%    100.00% # Distribution of cycle latency between the first time a load is issued and its completion (Unspecified)
board.processor.cores8.core.lsq0.loadToUse::150-159            1      0.00%    100.00% # Distribution of cycle latency between the first time a load is issued and its completion (Unspecified)
board.processor.cores8.core.lsq0.loadToUse::210-219            1      0.00%    100.00% # Distribution of cycle latency between the first time a load is issued and its completion (Unspecified)
board.processor.cores8.core.lsq0.loadToUse::240-249            1      0.00%    100.00% # Distribution of cycle latency between the first time a load is issued and its completion (Unspecified)
board.processor.cores8.core.lsq0.loadToUse::min_value            2                       # Distribution of cycle latency between the first time a load is issued and its completion (Unspecified)
board.processor.cores8.core.lsq0.loadToUse::max_value          245                       # Distribution of cycle latency between the first time a load is issued and its completion (Unspecified)
board.processor.cores8.core.lsq0.loadToUse::total        66107                       # Distribution of cycle latency between the first time a load is issued and its completion (Unspecified)
board.processor.cores8.core.mmu.dtb.rdAccesses       111361                       # TLB accesses on read requests (Count)
board.processor.cores8.core.mmu.dtb.wrAccesses        33285                       # TLB accesses on write requests (Count)
board.processor.cores8.core.mmu.dtb.rdMisses           72                       # TLB misses on read requests (Count)
board.processor.cores8.core.mmu.dtb.wrMisses            8                       # TLB misses on write requests (Count)
board.processor.cores8.core.mmu.dtb.walker.power_state.pwrStateResidencyTicks::UNDEFINED    401240358                       # Cumulative time (in ticks) in various power states (Tick)
board.processor.cores8.core.mmu.itb.rdAccesses            0                       # TLB accesses on read requests (Count)
board.processor.cores8.core.mmu.itb.wrAccesses        66362                       # TLB accesses on write requests (Count)
board.processor.cores8.core.mmu.itb.rdMisses            0                       # TLB misses on read requests (Count)
board.processor.cores8.core.mmu.itb.wrMisses           76                       # TLB misses on write requests (Count)
board.processor.cores8.core.mmu.itb.walker.power_state.pwrStateResidencyTicks::UNDEFINED    401240358                       # Cumulative time (in ticks) in various power states (Tick)
board.processor.cores8.core.power_state.pwrStateResidencyTicks::ON    401240358                       # Cumulative time (in ticks) in various power states (Tick)
board.processor.cores8.core.rename.squashCycles         4235                       # Number of cycles rename is squashing (Cycle)
board.processor.cores8.core.rename.idleCycles        46065                       # Number of cycles rename is idle (Cycle)
board.processor.cores8.core.rename.blockCycles       145836                       # Number of cycles rename is blocking (Cycle)
board.processor.cores8.core.rename.serializeStallCycles            0                       # count of cycles rename stalled for serializing inst (Cycle)
board.processor.cores8.core.rename.runCycles        83070                       # Number of cycles rename is running (Cycle)
board.processor.cores8.core.rename.unblockCycles        47218                       # Number of cycles rename is unblocking (Cycle)
board.processor.cores8.core.rename.renamedInsts       646415                       # Number of instructions processed by rename (Count)
board.processor.cores8.core.rename.ROBFullEvents           14                       # Number of times rename has blocked due to ROB full (Count)
board.processor.cores8.core.rename.IQFullEvents        46057                       # Number of times rename has blocked due to IQ full (Count)
board.processor.cores8.core.rename.LQFullEvents           65                       # Number of times rename has blocked due to LQ full (Count)
board.processor.cores8.core.rename.SQFullEvents         1073                       # Number of times rename has blocked due to SQ full (Count)
board.processor.cores8.core.rename.renamedOperands      1021974                       # Number of destination operands rename has renamed (Count)
board.processor.cores8.core.rename.lookups      2020384                       # Number of register rename lookups that rename has made (Count)
board.processor.cores8.core.rename.intLookups       765370                       # Number of integer rename lookups (Count)
board.processor.cores8.core.rename.fpLookups           15                       # Number of floating rename lookups (Count)
board.processor.cores8.core.rename.committedMaps       411402                       # Number of HB maps that are committed (Count)
board.processor.cores8.core.rename.undoneMaps       610572                       # Number of HB maps that are undone due to squashing (Count)
board.processor.cores8.core.rename.serializing            0                       # count of serializing insts renamed (Count)
board.processor.cores8.core.rename.tempSerializing            0                       # count of temporary serializing insts renamed (Count)
board.processor.cores8.core.rename.skidInsts        71450                       # count of insts added to the skid buffer (Count)
board.processor.cores8.core.rob.reads          877898                       # The number of ROB reads (Count)
board.processor.cores8.core.rob.writes        1271494                       # The number of ROB writes (Count)
board.processor.cores8.core.thread_0.numInsts       157604                       # Number of Instructions committed (Count)
board.processor.cores8.core.thread_0.numOps       266299                       # Number of Ops committed (Count)
board.processor.cores8.core.thread_0.numMemRefs            0                       # Number of Memory References (Count)
board.workload.inst.arm                             0                       # number of arm instructions executed (Count)
board.workload.inst.quiesce                         0                       # number of quiesce instructions executed (Count)

---------- End Simulation Statistics   ----------
