
---------- Begin Simulation Statistics ----------
simSeconds                                   0.000111                       # Number of seconds simulated (Second)
simTicks                                    111327894                       # Number of ticks simulated (Tick)
finalTick                                   374159133                       # Number of ticks from beginning of simulation (restored from checkpoints and never reset) (Tick)
simFreq                                  1000000000000                       # The number of ticks per simulated second ((Tick/Second))
hostSeconds                                     21.50                       # Real time elapsed on the host (Second)
hostTickRate                                  5178210                       # The number of ticks simulated per host second (ticks/s) ((Tick/Second))
hostMemory                                    1801536                       # Number of bytes of host memory used (Byte)
simInsts                                      1795221                       # Number of instructions simulated (Count)
simOps                                        3019403                       # Number of ops (including micro ops) simulated (Count)
hostInstRate                                    83501                       # Simulator instruction rate (inst/s) ((Count/Second))
hostOpRate                                     140441                       # Simulator op (including micro ops) rate (op/s) ((Count/Second))
board.cache_hierarchy.ruby_system.delayHistogram::bucket_size           16                       # delay histogram for all message (Unspecified)
board.cache_hierarchy.ruby_system.delayHistogram::max_bucket          159                       # delay histogram for all message (Unspecified)
board.cache_hierarchy.ruby_system.delayHistogram::samples        21669                       # delay histogram for all message (Unspecified)
board.cache_hierarchy.ruby_system.delayHistogram::mean     0.363422                       # delay histogram for all message (Unspecified)
board.cache_hierarchy.ruby_system.delayHistogram::stdev     1.817894                       # delay histogram for all message (Unspecified)
board.cache_hierarchy.ruby_system.delayHistogram |       21629     99.82%     99.82% |          37      0.17%     99.99% |           2      0.01%    100.00% |           0      0.00%    100.00% |           0      0.00%    100.00% |           1      0.00%    100.00% |           0      0.00%    100.00% |           0      0.00%    100.00% |           0      0.00%    100.00% |           0      0.00%    100.00% # delay histogram for all message (Unspecified)
board.cache_hierarchy.ruby_system.delayHistogram::total        21669                       # delay histogram for all message (Unspecified)
board.cache_hierarchy.ruby_system.m_outstandReqHistSeqr::bucket_size            2                       (Unspecified)
board.cache_hierarchy.ruby_system.m_outstandReqHistSeqr::max_bucket           19                       (Unspecified)
board.cache_hierarchy.ruby_system.m_outstandReqHistSeqr::samples      1167320                       (Unspecified)
board.cache_hierarchy.ruby_system.m_outstandReqHistSeqr::mean     1.057593                       (Unspecified)
board.cache_hierarchy.ruby_system.m_outstandReqHistSeqr::gmean     1.034630                       (Unspecified)
board.cache_hierarchy.ruby_system.m_outstandReqHistSeqr::stdev     0.335965                       (Unspecified)
board.cache_hierarchy.ruby_system.m_outstandReqHistSeqr |     1119905     95.94%     95.94% |       42937      3.68%     99.62% |        3955      0.34%     99.96% |         334      0.03%     99.98% |          96      0.01%     99.99% |          34      0.00%     99.99% |          41      0.00%    100.00% |          13      0.00%    100.00% |           5      0.00%    100.00% |           0      0.00%    100.00% (Unspecified)
board.cache_hierarchy.ruby_system.m_outstandReqHistSeqr::total      1167320                       (Unspecified)
board.cache_hierarchy.ruby_system.m_latencyHistSeqr::bucket_size          256                       (Unspecified)
board.cache_hierarchy.ruby_system.m_latencyHistSeqr::max_bucket         2559                       (Unspecified)
board.cache_hierarchy.ruby_system.m_latencyHistSeqr::samples      1167790                       (Unspecified)
board.cache_hierarchy.ruby_system.m_latencyHistSeqr::mean     1.480445                       (Unspecified)
board.cache_hierarchy.ruby_system.m_latencyHistSeqr::gmean     1.025900                       (Unspecified)
board.cache_hierarchy.ruby_system.m_latencyHistSeqr::stdev     8.546865                       (Unspecified)
board.cache_hierarchy.ruby_system.m_latencyHistSeqr |     1167731     99.99%     99.99% |          41      0.00%    100.00% |           1      0.00%    100.00% |           1      0.00%    100.00% |          14      0.00%    100.00% |           2      0.00%    100.00% |           0      0.00%    100.00% |           0      0.00%    100.00% |           0      0.00%    100.00% |           0      0.00%    100.00% (Unspecified)
board.cache_hierarchy.ruby_system.m_latencyHistSeqr::total      1167790                       (Unspecified)
board.cache_hierarchy.ruby_system.m_hitLatencyHistSeqr::bucket_size           32                       (Unspecified)
board.cache_hierarchy.ruby_system.m_hitLatencyHistSeqr::max_bucket          319                       (Unspecified)
board.cache_hierarchy.ruby_system.m_hitLatencyHistSeqr::samples      1160738                       (Unspecified)
board.cache_hierarchy.ruby_system.m_hitLatencyHistSeqr::mean     1.001010                       (Unspecified)
board.cache_hierarchy.ruby_system.m_hitLatencyHistSeqr::gmean     1.000295                       (Unspecified)
board.cache_hierarchy.ruby_system.m_hitLatencyHistSeqr::stdev     0.312408                       (Unspecified)
board.cache_hierarchy.ruby_system.m_hitLatencyHistSeqr |     1160733    100.00%    100.00% |           1      0.00%    100.00% |           0      0.00%    100.00% |           0      0.00%    100.00% |           2      0.00%    100.00% |           1      0.00%    100.00% |           1      0.00%    100.00% |           0      0.00%    100.00% |           0      0.00%    100.00% |           0      0.00%    100.00% (Unspecified)
board.cache_hierarchy.ruby_system.m_hitLatencyHistSeqr::total      1160738                       (Unspecified)
board.cache_hierarchy.ruby_system.m_missLatencyHistSeqr::bucket_size          256                       (Unspecified)
board.cache_hierarchy.ruby_system.m_missLatencyHistSeqr::max_bucket         2559                       (Unspecified)
board.cache_hierarchy.ruby_system.m_missLatencyHistSeqr::samples         7052                       (Unspecified)
board.cache_hierarchy.ruby_system.m_missLatencyHistSeqr::mean    80.394073                       (Unspecified)
board.cache_hierarchy.ruby_system.m_missLatencyHistSeqr::gmean    65.743125                       (Unspecified)
board.cache_hierarchy.ruby_system.m_missLatencyHistSeqr::stdev    76.264244                       (Unspecified)
board.cache_hierarchy.ruby_system.m_missLatencyHistSeqr |        6993     99.16%     99.16% |          41      0.58%     99.74% |           1      0.01%     99.76% |           1      0.01%     99.77% |          14      0.20%     99.97% |           2      0.03%    100.00% |           0      0.00%    100.00% |           0      0.00%    100.00% |           0      0.00%    100.00% |           0      0.00%    100.00% (Unspecified)
board.cache_hierarchy.ruby_system.m_missLatencyHistSeqr::total         7052                       (Unspecified)
board.cache_hierarchy.ruby_system.delayVCHist.vnet_0::bucket_size           16                       # delay histogram for vnet_0 (Unspecified)
board.cache_hierarchy.ruby_system.delayVCHist.vnet_0::max_bucket          159                       # delay histogram for vnet_0 (Unspecified)
board.cache_hierarchy.ruby_system.delayVCHist.vnet_0::samples        11164                       # delay histogram for vnet_0 (Unspecified)
board.cache_hierarchy.ruby_system.delayVCHist.vnet_0::mean     0.306073                       # delay histogram for vnet_0 (Unspecified)
board.cache_hierarchy.ruby_system.delayVCHist.vnet_0::stdev     1.794293                       # delay histogram for vnet_0 (Unspecified)
board.cache_hierarchy.ruby_system.delayVCHist.vnet_0 |       11153     99.90%     99.90% |           8      0.07%     99.97% |           2      0.02%     99.99% |           0      0.00%     99.99% |           0      0.00%     99.99% |           1      0.01%    100.00% |           0      0.00%    100.00% |           0      0.00%    100.00% |           0      0.00%    100.00% |           0      0.00%    100.00% # delay histogram for vnet_0 (Unspecified)
board.cache_hierarchy.ruby_system.delayVCHist.vnet_0::total        11164                       # delay histogram for vnet_0 (Unspecified)
board.cache_hierarchy.ruby_system.delayVCHist.vnet_1::bucket_size            4                       # delay histogram for vnet_1 (Unspecified)
board.cache_hierarchy.ruby_system.delayVCHist.vnet_1::max_bucket           39                       # delay histogram for vnet_1 (Unspecified)
board.cache_hierarchy.ruby_system.delayVCHist.vnet_1::samples         9398                       # delay histogram for vnet_1 (Unspecified)
board.cache_hierarchy.ruby_system.delayVCHist.vnet_1::mean     0.474143                       # delay histogram for vnet_1 (Unspecified)
board.cache_hierarchy.ruby_system.delayVCHist.vnet_1::stdev     1.940018                       # delay histogram for vnet_1 (Unspecified)
board.cache_hierarchy.ruby_system.delayVCHist.vnet_1 |        8833     93.99%     93.99% |         212      2.26%     96.24% |         318      3.38%     99.63% |           6      0.06%     99.69% |          21      0.22%     99.91% |           1      0.01%     99.93% |           7      0.07%    100.00% |           0      0.00%    100.00% |           0      0.00%    100.00% |           0      0.00%    100.00% # delay histogram for vnet_1 (Unspecified)
board.cache_hierarchy.ruby_system.delayVCHist.vnet_1::total         9398                       # delay histogram for vnet_1 (Unspecified)
board.cache_hierarchy.ruby_system.delayVCHist.vnet_2::bucket_size            1                       # delay histogram for vnet_2 (Unspecified)
board.cache_hierarchy.ruby_system.delayVCHist.vnet_2::max_bucket            9                       # delay histogram for vnet_2 (Unspecified)
board.cache_hierarchy.ruby_system.delayVCHist.vnet_2::samples         1107                       # delay histogram for vnet_2 (Unspecified)
board.cache_hierarchy.ruby_system.delayVCHist.vnet_2::mean     0.001807                       # delay histogram for vnet_2 (Unspecified)
board.cache_hierarchy.ruby_system.delayVCHist.vnet_2::stdev     0.060111                       # delay histogram for vnet_2 (Unspecified)
board.cache_hierarchy.ruby_system.delayVCHist.vnet_2 |        1106     99.91%     99.91% |           0      0.00%     99.91% |           1      0.09%    100.00% |           0      0.00%    100.00% |           0      0.00%    100.00% |           0      0.00%    100.00% |           0      0.00%    100.00% |           0      0.00%    100.00% |           0      0.00%    100.00% |           0      0.00%    100.00% # delay histogram for vnet_2 (Unspecified)
board.cache_hierarchy.ruby_system.delayVCHist.vnet_2::total         1107                       # delay histogram for vnet_2 (Unspecified)
board.cache_hierarchy.ruby_system.Directory_Controller.Fetch         1103      0.00%      0.00% (Unspecified)
board.cache_hierarchy.ruby_system.Directory_Controller.Memory_Data         1103      0.00%      0.00% (Unspecified)
board.cache_hierarchy.ruby_system.Directory_Controller.I.Fetch         1103      0.00%      0.00% (Unspecified)
board.cache_hierarchy.ruby_system.Directory_Controller.IM.Memory_Data         1103      0.00%      0.00% (Unspecified)
board.cache_hierarchy.ruby_system.L1Cache_Controller.Load |       12523      3.96%      3.96% |       19036      6.02%      9.98% |       19013      6.01%     15.99% |       18999      6.01%     21.99% |       18978      6.00%     27.99% |       18989      6.00%     33.99% |       18983      6.00%     39.99% |       18987      6.00%     45.99% |       18985      6.00%     52.00% |       18987      6.00%     58.00% |       18978      6.00%     64.00% |       18982      6.00%     70.00% |       18988      6.00%     76.00% |       18982      6.00%     82.00% |       18992      6.00%     88.00% |       18982      6.00%     94.00% |       18978      6.00%    100.00% (Unspecified)
board.cache_hierarchy.ruby_system.L1Cache_Controller.Load::total       316362                       (Unspecified)
board.cache_hierarchy.ruby_system.L1Cache_Controller.Ifetch |       21944      3.93%      3.93% |       33548      6.00%      9.93% |       33590      6.01%     15.94% |       33619      6.02%     21.96% |       33543      6.00%     27.96% |       33551      6.00%     33.97% |       33538      6.00%     39.97% |       33549      6.00%     45.98% |       33541      6.00%     51.98% |       33536      6.00%     57.98% |       33527      6.00%     63.98% |       33533      6.00%     69.98% |       33546      6.00%     75.99% |       33538      6.00%     81.99% |       33546      6.00%     87.99% |       33539      6.00%     94.00% |       33543      6.00%    100.00% (Unspecified)
board.cache_hierarchy.ruby_system.L1Cache_Controller.Ifetch::total       558731                       (Unspecified)
board.cache_hierarchy.ruby_system.L1Cache_Controller.Store |       22359      7.64%      7.64% |       17141      5.86%     13.50% |       17133      5.85%     19.35% |       17132      5.85%     25.20% |       16841      5.75%     30.96% |       16841      5.75%     36.71% |       16841      5.75%     42.46% |       16841      5.75%     48.22% |       16841      5.75%     53.97% |       16841      5.75%     59.72% |       16841      5.75%     65.48% |       16841      5.75%     71.23% |       16841      5.75%     76.99% |       16841      5.75%     82.74% |       16841      5.75%     88.49% |       16841      5.75%     94.25% |       16841      5.75%    100.00% (Unspecified)
board.cache_hierarchy.ruby_system.L1Cache_Controller.Store::total       292698                       (Unspecified)
board.cache_hierarchy.ruby_system.L1Cache_Controller.Inv |          91     36.25%     36.25% |          15      5.98%     42.23% |           7      2.79%     45.02% |          11      4.38%     49.40% |          10      3.98%     53.39% |          12      4.78%     58.17% |           9      3.59%     61.75% |          10      3.98%     65.74% |          10      3.98%     69.72% |          12      4.78%     74.50% |          12      4.78%     79.28% |          12      4.78%     84.06% |          11      4.38%     88.45% |          10      3.98%     92.43% |          10      3.98%     96.41% |           8      3.19%     99.60% |           1      0.40%    100.00% (Unspecified)
board.cache_hierarchy.ruby_system.L1Cache_Controller.Inv::total          251                       (Unspecified)
board.cache_hierarchy.ruby_system.L1Cache_Controller.L1_Replacement |         896     99.56%     99.56% |           0      0.00%     99.56% |           0      0.00%     99.56% |           0      0.00%     99.56% |           0      0.00%     99.56% |           2      0.22%     99.78% |           0      0.00%     99.78% |           0      0.00%     99.78% |           0      0.00%     99.78% |           2      0.22%    100.00% |           0      0.00%    100.00% |           0      0.00%    100.00% |           0      0.00%    100.00% |           0      0.00%    100.00% |           0      0.00%    100.00% |           0      0.00%    100.00% |           0      0.00%    100.00% (Unspecified)
board.cache_hierarchy.ruby_system.L1Cache_Controller.L1_Replacement::total          900                       (Unspecified)
board.cache_hierarchy.ruby_system.L1Cache_Controller.Fwd_GETX |          46     20.00%     20.00% |          15      6.52%     26.52% |           4      1.74%     28.26% |           1      0.43%     28.70% |          15      6.52%     35.22% |          13      5.65%     40.87% |          13      5.65%     46.52% |          13      5.65%     52.17% |          13      5.65%     57.83% |          13      5.65%     63.48% |          13      5.65%     69.13% |          13      5.65%     74.78% |          14      6.09%     80.87% |          14      6.09%     86.96% |          14      6.09%     93.04% |          14      6.09%     99.13% |           2      0.87%    100.00% (Unspecified)
board.cache_hierarchy.ruby_system.L1Cache_Controller.Fwd_GETX::total          230                       (Unspecified)
board.cache_hierarchy.ruby_system.L1Cache_Controller.Fwd_GETS |         403     64.38%     64.38% |          22      3.51%     67.89% |          10      1.60%     69.49% |          14      2.24%     71.73% |          12      1.92%     73.64% |          14      2.24%     75.88% |          15      2.40%     78.27% |          16      2.56%     80.83% |          16      2.56%     83.39% |          14      2.24%     85.62% |          14      2.24%     87.86% |          15      2.40%     90.26% |          14      2.24%     92.49% |          13      2.08%     94.57% |          14      2.24%     96.81% |          14      2.24%     99.04% |           6      0.96%    100.00% (Unspecified)
board.cache_hierarchy.ruby_system.L1Cache_Controller.Fwd_GETS::total          626                       (Unspecified)
board.cache_hierarchy.ruby_system.L1Cache_Controller.Data_Exclusive |          62      3.19%      3.19% |         139      7.16%     10.35% |         132      6.80%     17.15% |         132      6.80%     23.94% |         132      6.80%     30.74% |         132      6.80%     37.54% |         133      6.85%     44.39% |         133      6.85%     51.24% |         133      6.85%     58.08% |         133      6.85%     64.93% |         133      6.85%     71.78% |         133      6.85%     78.63% |         133      6.85%     85.48% |         128      6.59%     92.07% |          78      4.02%     96.09% |          37      1.91%     97.99% |          39      2.01%    100.00% (Unspecified)
board.cache_hierarchy.ruby_system.L1Cache_Controller.Data_Exclusive::total         1942                       (Unspecified)
board.cache_hierarchy.ruby_system.L1Cache_Controller.DataS_fromL1 |          82     13.10%     13.10% |          22      3.51%     16.61% |          21      3.35%     19.97% |          16      2.56%     22.52% |          19      3.04%     25.56% |          20      3.19%     28.75% |          16      2.56%     31.31% |          18      2.88%     34.19% |          18      2.88%     37.06% |          17      2.72%     39.78% |          18      2.88%     42.65% |          18      2.88%     45.53% |          18      2.88%     48.40% |          21      3.35%     51.76% |          75     11.98%     63.74% |         114     18.21%     81.95% |         113     18.05%    100.00% (Unspecified)
board.cache_hierarchy.ruby_system.L1Cache_Controller.DataS_fromL1::total          626                       (Unspecified)
board.cache_hierarchy.ruby_system.L1Cache_Controller.Data_all_Acks |         798     18.78%     18.78% |         254      5.98%     24.75% |         262      6.16%     30.92% |         269      6.33%     37.25% |         203      4.78%     42.02% |         206      4.85%     46.87% |         206      4.85%     51.72% |         208      4.89%     56.61% |         205      4.82%     61.44% |         209      4.92%     66.35% |         204      4.80%     71.15% |         204      4.80%     75.95% |         204      4.80%     80.75% |         204      4.80%     85.55% |         205      4.82%     90.38% |         204      4.80%     95.18% |         205      4.82%    100.00% (Unspecified)
board.cache_hierarchy.ruby_system.L1Cache_Controller.Data_all_Acks::total         4250                       (Unspecified)
board.cache_hierarchy.ruby_system.L1Cache_Controller.Ack |          39     15.54%     15.54% |          12      4.78%     20.32% |          12      4.78%     25.10% |          12      4.78%     29.88% |          15      5.98%     35.86% |          14      5.58%     41.43% |          13      5.18%     46.61% |          14      5.58%     52.19% |          14      5.58%     57.77% |          13      5.18%     62.95% |          14      5.58%     68.53% |          13      5.18%     73.71% |          13      5.18%     78.88% |          13      5.18%     84.06% |          12      4.78%     88.84% |          15      5.98%     94.82% |          13      5.18%    100.00% (Unspecified)
board.cache_hierarchy.ruby_system.L1Cache_Controller.Ack::total          251                       (Unspecified)
board.cache_hierarchy.ruby_system.L1Cache_Controller.Ack_all |          35     14.96%     14.96% |          10      4.27%     19.23% |          10      4.27%     23.50% |          11      4.70%     28.21% |          13      5.56%     33.76% |          13      5.56%     39.32% |          12      5.13%     44.44% |          14      5.98%     50.43% |          14      5.98%     56.41% |          12      5.13%     61.54% |          13      5.56%     67.09% |          13      5.56%     72.65% |          13      5.56%     78.21% |          12      5.13%     83.33% |          12      5.13%     88.46% |          14      5.98%     94.44% |          13      5.56%    100.00% (Unspecified)
board.cache_hierarchy.ruby_system.L1Cache_Controller.Ack_all::total          234                       (Unspecified)
board.cache_hierarchy.ruby_system.L1Cache_Controller.WB_Ack |         366    100.00%    100.00% |           0      0.00%    100.00% |           0      0.00%    100.00% |           0      0.00%    100.00% |           0      0.00%    100.00% |           0      0.00%    100.00% |           0      0.00%    100.00% |           0      0.00%    100.00% |           0      0.00%    100.00% |           0      0.00%    100.00% |           0      0.00%    100.00% |           0      0.00%    100.00% |           0      0.00%    100.00% |           0      0.00%    100.00% |           0      0.00%    100.00% |           0      0.00%    100.00% |           0      0.00%    100.00% (Unspecified)
board.cache_hierarchy.ruby_system.L1Cache_Controller.WB_Ack::total          366                       (Unspecified)
board.cache_hierarchy.ruby_system.L1Cache_Controller.NP.Load |         151      5.49%      5.49% |         158      5.74%     11.23% |         159      5.78%     17.01% |         159      5.78%     22.78% |         162      5.89%     28.67% |         163      5.92%     34.59% |         162      5.89%     40.48% |         163      5.92%     46.40% |         163      5.92%     52.33% |         164      5.96%     58.28% |         163      5.92%     64.21% |         163      5.92%     70.13% |         163      5.92%     76.05% |         163      5.92%     81.98% |         166      6.03%     88.01% |         165      6.00%     94.00% |         165      6.00%    100.00% (Unspecified)
board.cache_hierarchy.ruby_system.L1Cache_Controller.NP.Load::total         2752                       (Unspecified)
board.cache_hierarchy.ruby_system.L1Cache_Controller.NP.Ifetch |         351     11.46%     11.46% |         190      6.20%     17.66% |         192      6.27%     23.93% |         192      6.27%     30.20% |         163      5.32%     35.52% |         165      5.39%     40.91% |         165      5.39%     46.29% |         168      5.48%     51.78% |         165      5.39%     57.17% |         166      5.42%     62.59% |         164      5.35%     67.94% |         164      5.35%     73.29% |         164      5.35%     78.65% |         162      5.29%     83.94% |         164      5.35%     89.29% |         163      5.32%     94.61% |         165      5.39%    100.00% (Unspecified)
board.cache_hierarchy.ruby_system.L1Cache_Controller.NP.Ifetch::total         3063                       (Unspecified)
board.cache_hierarchy.ruby_system.L1Cache_Controller.NP.Store |         392     42.61%     42.61% |          60      6.52%     49.13% |          60      6.52%     55.65% |          60      6.52%     62.17% |          27      2.93%     65.11% |          27      2.93%     68.04% |          27      2.93%     70.98% |          27      2.93%     73.91% |          27      2.93%     76.85% |          27      2.93%     79.78% |          27      2.93%     82.72% |          27      2.93%     85.65% |          27      2.93%     88.59% |          27      2.93%     91.52% |          26      2.83%     94.35% |          26      2.83%     97.17% |          26      2.83%    100.00% (Unspecified)
board.cache_hierarchy.ruby_system.L1Cache_Controller.NP.Store::total          920                       (Unspecified)
board.cache_hierarchy.ruby_system.L1Cache_Controller.NP.Inv |          12    100.00%    100.00% |           0      0.00%    100.00% |           0      0.00%    100.00% |           0      0.00%    100.00% |           0      0.00%    100.00% |           0      0.00%    100.00% |           0      0.00%    100.00% |           0      0.00%    100.00% |           0      0.00%    100.00% |           0      0.00%    100.00% |           0      0.00%    100.00% |           0      0.00%    100.00% |           0      0.00%    100.00% |           0      0.00%    100.00% |           0      0.00%    100.00% |           0      0.00%    100.00% |           0      0.00%    100.00% (Unspecified)
board.cache_hierarchy.ruby_system.L1Cache_Controller.NP.Inv::total           12                       (Unspecified)
board.cache_hierarchy.ruby_system.L1Cache_Controller.I.Load |          42     71.19%     71.19% |           4      6.78%     77.97% |           2      3.39%     81.36% |           4      6.78%     88.14% |           2      3.39%     91.53% |           3      5.08%     96.61% |           0      0.00%     96.61% |           0      0.00%     96.61% |           0      0.00%     96.61% |           1      1.69%     98.31% |           1      1.69%    100.00% |           0      0.00%    100.00% |           0      0.00%    100.00% |           0      0.00%    100.00% |           0      0.00%    100.00% |           0      0.00%    100.00% |           0      0.00%    100.00% (Unspecified)
board.cache_hierarchy.ruby_system.L1Cache_Controller.I.Load::total           59                       (Unspecified)
board.cache_hierarchy.ruby_system.L1Cache_Controller.I.Store |           6     26.09%     26.09% |           2      8.70%     34.78% |           2      8.70%     43.48% |           2      8.70%     52.17% |           0      0.00%     52.17% |           0      0.00%     52.17% |           1      4.35%     56.52% |           1      4.35%     60.87% |           1      4.35%     65.22% |           1      4.35%     69.57% |           0      0.00%     69.57% |           1      4.35%     73.91% |           1      4.35%     78.26% |           1      4.35%     82.61% |           2      8.70%     91.30% |           1      4.35%     95.65% |           1      4.35%    100.00% (Unspecified)
board.cache_hierarchy.ruby_system.L1Cache_Controller.I.Store::total           23                       (Unspecified)
board.cache_hierarchy.ruby_system.L1Cache_Controller.I.L1_Replacement |          57    100.00%    100.00% |           0      0.00%    100.00% |           0      0.00%    100.00% |           0      0.00%    100.00% |           0      0.00%    100.00% |           0      0.00%    100.00% |           0      0.00%    100.00% |           0      0.00%    100.00% |           0      0.00%    100.00% |           0      0.00%    100.00% |           0      0.00%    100.00% |           0      0.00%    100.00% |           0      0.00%    100.00% |           0      0.00%    100.00% |           0      0.00%    100.00% |           0      0.00%    100.00% |           0      0.00%    100.00% (Unspecified)
board.cache_hierarchy.ruby_system.L1Cache_Controller.I.L1_Replacement::total           57                       (Unspecified)
board.cache_hierarchy.ruby_system.L1Cache_Controller.S.Load |         491      9.05%      9.05% |          70      1.29%     10.34% |          90      1.66%     12.00% |          82      1.51%     13.51% |          72      1.33%     14.84% |          83      1.53%     16.37% |          66      1.22%     17.59% |          82      1.51%     19.10% |          82      1.51%     20.61% |          58      1.07%     21.68% |          63      1.16%     22.84% |          62      1.14%     23.99% |          80      1.47%     25.46% |         137      2.53%     27.99% |         928     17.11%     45.10% |        1495     27.56%     72.66% |        1483     27.34%    100.00% (Unspecified)
board.cache_hierarchy.ruby_system.L1Cache_Controller.S.Load::total         5424                       (Unspecified)
board.cache_hierarchy.ruby_system.L1Cache_Controller.S.Ifetch |       21592      3.89%      3.89% |       33358      6.00%      9.89% |       33398      6.01%     15.90% |       33427      6.02%     21.92% |       33380      6.01%     27.92% |       33386      6.01%     33.93% |       33373      6.01%     39.94% |       33381      6.01%     45.94% |       33376      6.01%     51.95% |       33370      6.01%     57.96% |       33363      6.00%     63.96% |       33369      6.01%     69.97% |       33382      6.01%     75.97% |       33376      6.01%     81.98% |       33382      6.01%     87.99% |       33376      6.01%     93.99% |       33378      6.01%    100.00% (Unspecified)
board.cache_hierarchy.ruby_system.L1Cache_Controller.S.Ifetch::total       555667                       (Unspecified)
board.cache_hierarchy.ruby_system.L1Cache_Controller.S.Store |          35     14.89%     14.89% |          11      4.68%     19.57% |          10      4.26%     23.83% |          11      4.68%     28.51% |          13      5.53%     34.04% |          13      5.53%     39.57% |          12      5.11%     44.68% |          14      5.96%     50.64% |          14      5.96%     56.60% |          12      5.11%     61.70% |          13      5.53%     67.23% |          13      5.53%     72.77% |          13      5.53%     78.30% |          12      5.11%     83.40% |          12      5.11%     88.51% |          14      5.96%     94.47% |          13      5.53%    100.00% (Unspecified)
board.cache_hierarchy.ruby_system.L1Cache_Controller.S.Store::total          235                       (Unspecified)
board.cache_hierarchy.ruby_system.L1Cache_Controller.S.Inv |          79     33.19%     33.19% |          14      5.88%     39.08% |           7      2.94%     42.02% |          11      4.62%     46.64% |          10      4.20%     50.84% |          12      5.04%     55.88% |           9      3.78%     59.66% |          10      4.20%     63.87% |          10      4.20%     68.07% |          12      5.04%     73.11% |          12      5.04%     78.15% |          12      5.04%     83.19% |          11      4.62%     87.82% |          10      4.20%     92.02% |          10      4.20%     96.22% |           8      3.36%     99.58% |           1      0.42%    100.00% (Unspecified)
board.cache_hierarchy.ruby_system.L1Cache_Controller.S.Inv::total          238                       (Unspecified)
board.cache_hierarchy.ruby_system.L1Cache_Controller.S.L1_Replacement |         473     99.16%     99.16% |           0      0.00%     99.16% |           0      0.00%     99.16% |           0      0.00%     99.16% |           0      0.00%     99.16% |           2      0.42%     99.58% |           0      0.00%     99.58% |           0      0.00%     99.58% |           0      0.00%     99.58% |           2      0.42%    100.00% |           0      0.00%    100.00% |           0      0.00%    100.00% |           0      0.00%    100.00% |           0      0.00%    100.00% |           0      0.00%    100.00% |           0      0.00%    100.00% |           0      0.00%    100.00% (Unspecified)
board.cache_hierarchy.ruby_system.L1Cache_Controller.S.L1_Replacement::total          477                       (Unspecified)
board.cache_hierarchy.ruby_system.L1Cache_Controller.E.Load |        1536      5.40%      5.40% |        1922      6.76%     12.16% |        1916      6.74%     18.90% |        1916      6.74%     25.64% |        1916      6.74%     32.38% |        1916      6.74%     39.12% |        1920      6.75%     45.87% |        1916      6.74%     52.61% |        1916      6.74%     59.34% |        1916      6.74%     66.08% |        1916      6.74%     72.82% |        1916      6.74%     79.56% |        1916      6.74%     86.30% |        1841      6.47%     92.77% |        1065      3.75%     96.52% |         480      1.69%     98.21% |         510      1.79%    100.00% (Unspecified)
board.cache_hierarchy.ruby_system.L1Cache_Controller.E.Load::total        28434                       (Unspecified)
board.cache_hierarchy.ruby_system.L1Cache_Controller.E.Store |          21     87.50%     87.50% |           0      0.00%     87.50% |           0      0.00%     87.50% |           0      0.00%     87.50% |           0      0.00%     87.50% |           0      0.00%     87.50% |           0      0.00%     87.50% |           0      0.00%     87.50% |           0      0.00%     87.50% |           0      0.00%     87.50% |           0      0.00%     87.50% |           0      0.00%     87.50% |           0      0.00%     87.50% |           0      0.00%     87.50% |           1      4.17%     91.67% |           1      4.17%     95.83% |           1      4.17%    100.00% (Unspecified)
board.cache_hierarchy.ruby_system.L1Cache_Controller.E.Store::total           24                       (Unspecified)
board.cache_hierarchy.ruby_system.L1Cache_Controller.E.L1_Replacement |          13    100.00%    100.00% |           0      0.00%    100.00% |           0      0.00%    100.00% |           0      0.00%    100.00% |           0      0.00%    100.00% |           0      0.00%    100.00% |           0      0.00%    100.00% |           0      0.00%    100.00% |           0      0.00%    100.00% |           0      0.00%    100.00% |           0      0.00%    100.00% |           0      0.00%    100.00% |           0      0.00%    100.00% |           0      0.00%    100.00% |           0      0.00%    100.00% |           0      0.00%    100.00% |           0      0.00%    100.00% (Unspecified)
board.cache_hierarchy.ruby_system.L1Cache_Controller.E.L1_Replacement::total           13                       (Unspecified)
board.cache_hierarchy.ruby_system.L1Cache_Controller.E.Fwd_GETS |           7     15.91%     15.91% |           8     18.18%     34.09% |           2      4.55%     38.64% |           2      4.55%     43.18% |           2      4.55%     47.73% |           2      4.55%     52.27% |           3      6.82%     59.09% |           2      4.55%     63.64% |           2      4.55%     68.18% |           2      4.55%     72.73% |           2      4.55%     77.27% |           2      4.55%     81.82% |           2      4.55%     86.36% |           2      4.55%     90.91% |           2      4.55%     95.45% |           1      2.27%     97.73% |           1      2.27%    100.00% (Unspecified)
board.cache_hierarchy.ruby_system.L1Cache_Controller.E.Fwd_GETS::total           44                       (Unspecified)
board.cache_hierarchy.ruby_system.L1Cache_Controller.M.Load |       10303      3.68%      3.68% |       16882      6.04%      9.72% |       16846      6.02%     15.74% |       16838      6.02%     21.76% |       16826      6.02%     27.78% |       16824      6.02%     33.79% |       16835      6.02%     39.81% |       16826      6.02%     45.83% |       16824      6.02%     51.84% |       16848      6.02%     57.87% |       16835      6.02%     63.89% |       16841      6.02%     69.91% |       16829      6.02%     75.93% |       16841      6.02%     81.95% |       16833      6.02%     87.96% |       16842      6.02%     93.99% |       16820      6.01%    100.00% (Unspecified)
board.cache_hierarchy.ruby_system.L1Cache_Controller.M.Load::total       279693                       (Unspecified)
board.cache_hierarchy.ruby_system.L1Cache_Controller.M.Store |       21905      7.51%      7.51% |       17068      5.86%     13.37% |       17061      5.85%     19.22% |       17059      5.85%     25.08% |       16801      5.76%     30.84% |       16801      5.76%     36.60% |       16801      5.76%     42.37% |       16799      5.76%     48.13% |       16799      5.76%     53.89% |       16801      5.76%     59.66% |       16801      5.76%     65.42% |       16800      5.76%     71.18% |       16800      5.76%     76.95% |       16801      5.76%     82.71% |       16800      5.76%     88.47% |       16799      5.76%     94.24% |       16800      5.76%    100.00% (Unspecified)
board.cache_hierarchy.ruby_system.L1Cache_Controller.M.Store::total       291496                       (Unspecified)
board.cache_hierarchy.ruby_system.L1Cache_Controller.M.L1_Replacement |         353    100.00%    100.00% |           0      0.00%    100.00% |           0      0.00%    100.00% |           0      0.00%    100.00% |           0      0.00%    100.00% |           0      0.00%    100.00% |           0      0.00%    100.00% |           0      0.00%    100.00% |           0      0.00%    100.00% |           0      0.00%    100.00% |           0      0.00%    100.00% |           0      0.00%    100.00% |           0      0.00%    100.00% |           0      0.00%    100.00% |           0      0.00%    100.00% |           0      0.00%    100.00% |           0      0.00%    100.00% (Unspecified)
board.cache_hierarchy.ruby_system.L1Cache_Controller.M.L1_Replacement::total          353                       (Unspecified)
board.cache_hierarchy.ruby_system.L1Cache_Controller.M.Fwd_GETX |          46     20.00%     20.00% |          15      6.52%     26.52% |           4      1.74%     28.26% |           1      0.43%     28.70% |          15      6.52%     35.22% |          13      5.65%     40.87% |          13      5.65%     46.52% |          13      5.65%     52.17% |          13      5.65%     57.83% |          13      5.65%     63.48% |          13      5.65%     69.13% |          13      5.65%     74.78% |          14      6.09%     80.87% |          14      6.09%     86.96% |          14      6.09%     93.04% |          14      6.09%     99.13% |           2      0.87%    100.00% (Unspecified)
board.cache_hierarchy.ruby_system.L1Cache_Controller.M.Fwd_GETX::total          230                       (Unspecified)
board.cache_hierarchy.ruby_system.L1Cache_Controller.M.Fwd_GETS |         396     68.04%     68.04% |          14      2.41%     70.45% |           8      1.37%     71.82% |          12      2.06%     73.88% |          10      1.72%     75.60% |          12      2.06%     77.66% |          12      2.06%     79.73% |          14      2.41%     82.13% |          14      2.41%     84.54% |          12      2.06%     86.60% |          12      2.06%     88.66% |          13      2.23%     90.89% |          12      2.06%     92.96% |          11      1.89%     94.85% |          12      2.06%     96.91% |          13      2.23%     99.14% |           5      0.86%    100.00% (Unspecified)
board.cache_hierarchy.ruby_system.L1Cache_Controller.M.Fwd_GETS::total          582                       (Unspecified)
board.cache_hierarchy.ruby_system.L1Cache_Controller.IS.Data_Exclusive |          62      3.19%      3.19% |         139      7.16%     10.35% |         132      6.80%     17.15% |         132      6.80%     23.94% |         132      6.80%     30.74% |         132      6.80%     37.54% |         133      6.85%     44.39% |         133      6.85%     51.24% |         133      6.85%     58.08% |         133      6.85%     64.93% |         133      6.85%     71.78% |         133      6.85%     78.63% |         133      6.85%     85.48% |         128      6.59%     92.07% |          78      4.02%     96.09% |          37      1.91%     97.99% |          39      2.01%    100.00% (Unspecified)
board.cache_hierarchy.ruby_system.L1Cache_Controller.IS.Data_Exclusive::total         1942                       (Unspecified)
board.cache_hierarchy.ruby_system.L1Cache_Controller.IS.DataS_fromL1 |          82     13.10%     13.10% |          22      3.51%     16.61% |          21      3.35%     19.97% |          16      2.56%     22.52% |          19      3.04%     25.56% |          20      3.19%     28.75% |          16      2.56%     31.31% |          18      2.88%     34.19% |          18      2.88%     37.06% |          17      2.72%     39.78% |          18      2.88%     42.65% |          18      2.88%     45.53% |          18      2.88%     48.40% |          21      3.35%     51.76% |          75     11.98%     63.74% |         114     18.21%     81.95% |         113     18.05%    100.00% (Unspecified)
board.cache_hierarchy.ruby_system.L1Cache_Controller.IS.DataS_fromL1::total          626                       (Unspecified)
board.cache_hierarchy.ruby_system.L1Cache_Controller.IS.Data_all_Acks |         400     12.10%     12.10% |         191      5.78%     17.88% |         200      6.05%     23.93% |         207      6.26%     30.19% |         176      5.32%     35.51% |         179      5.41%     40.93% |         178      5.38%     46.31% |         180      5.44%     51.75% |         177      5.35%     57.11% |         181      5.47%     62.58% |         177      5.35%     67.94% |         176      5.32%     73.26% |         176      5.32%     78.58% |         176      5.32%     83.91% |         177      5.35%     89.26% |         177      5.35%     94.62% |         178      5.38%    100.00% (Unspecified)
board.cache_hierarchy.ruby_system.L1Cache_Controller.IS.Data_all_Acks::total         3306                       (Unspecified)
board.cache_hierarchy.ruby_system.L1Cache_Controller.IM.Data_all_Acks |         398     42.16%     42.16% |          63      6.67%     48.83% |          62      6.57%     55.40% |          62      6.57%     61.97% |          27      2.86%     64.83% |          27      2.86%     67.69% |          28      2.97%     70.66% |          28      2.97%     73.62% |          28      2.97%     76.59% |          28      2.97%     79.56% |          27      2.86%     82.42% |          28      2.97%     85.38% |          28      2.97%     88.35% |          28      2.97%     91.31% |          28      2.97%     94.28% |          27      2.86%     97.14% |          27      2.86%    100.00% (Unspecified)
board.cache_hierarchy.ruby_system.L1Cache_Controller.IM.Data_all_Acks::total          944                       (Unspecified)
board.cache_hierarchy.ruby_system.L1Cache_Controller.SM.Inv |           0      0.00%      0.00% |           1    100.00%    100.00% |           0      0.00%    100.00% |           0      0.00%    100.00% |           0      0.00%    100.00% |           0      0.00%    100.00% |           0      0.00%    100.00% |           0      0.00%    100.00% |           0      0.00%    100.00% |           0      0.00%    100.00% |           0      0.00%    100.00% |           0      0.00%    100.00% |           0      0.00%    100.00% |           0      0.00%    100.00% |           0      0.00%    100.00% |           0      0.00%    100.00% |           0      0.00%    100.00% (Unspecified)
board.cache_hierarchy.ruby_system.L1Cache_Controller.SM.Inv::total            1                       (Unspecified)
board.cache_hierarchy.ruby_system.L1Cache_Controller.SM.Ack |          39     15.54%     15.54% |          12      4.78%     20.32% |          12      4.78%     25.10% |          12      4.78%     29.88% |          15      5.98%     35.86% |          14      5.58%     41.43% |          13      5.18%     46.61% |          14      5.58%     52.19% |          14      5.58%     57.77% |          13      5.18%     62.95% |          14      5.58%     68.53% |          13      5.18%     73.71% |          13      5.18%     78.88% |          13      5.18%     84.06% |          12      4.78%     88.84% |          15      5.98%     94.82% |          13      5.18%    100.00% (Unspecified)
board.cache_hierarchy.ruby_system.L1Cache_Controller.SM.Ack::total          251                       (Unspecified)
board.cache_hierarchy.ruby_system.L1Cache_Controller.SM.Ack_all |          35     14.96%     14.96% |          10      4.27%     19.23% |          10      4.27%     23.50% |          11      4.70%     28.21% |          13      5.56%     33.76% |          13      5.56%     39.32% |          12      5.13%     44.44% |          14      5.98%     50.43% |          14      5.98%     56.41% |          12      5.13%     61.54% |          13      5.56%     67.09% |          13      5.56%     72.65% |          13      5.56%     78.21% |          12      5.13%     83.33% |          12      5.13%     88.46% |          14      5.98%     94.44% |          13      5.56%    100.00% (Unspecified)
board.cache_hierarchy.ruby_system.L1Cache_Controller.SM.Ack_all::total          234                       (Unspecified)
board.cache_hierarchy.ruby_system.L1Cache_Controller.M_I.Ifetch |           1    100.00%    100.00% |           0      0.00%    100.00% |           0      0.00%    100.00% |           0      0.00%    100.00% |           0      0.00%    100.00% |           0      0.00%    100.00% |           0      0.00%    100.00% |           0      0.00%    100.00% |           0      0.00%    100.00% |           0      0.00%    100.00% |           0      0.00%    100.00% |           0      0.00%    100.00% |           0      0.00%    100.00% |           0      0.00%    100.00% |           0      0.00%    100.00% |           0      0.00%    100.00% |           0      0.00%    100.00% (Unspecified)
board.cache_hierarchy.ruby_system.L1Cache_Controller.M_I.Ifetch::total            1                       (Unspecified)
board.cache_hierarchy.ruby_system.L1Cache_Controller.M_I.WB_Ack |         366    100.00%    100.00% |           0      0.00%    100.00% |           0      0.00%    100.00% |           0      0.00%    100.00% |           0      0.00%    100.00% |           0      0.00%    100.00% |           0      0.00%    100.00% |           0      0.00%    100.00% |           0      0.00%    100.00% |           0      0.00%    100.00% |           0      0.00%    100.00% |           0      0.00%    100.00% |           0      0.00%    100.00% |           0      0.00%    100.00% |           0      0.00%    100.00% |           0      0.00%    100.00% |           0      0.00%    100.00% (Unspecified)
board.cache_hierarchy.ruby_system.L1Cache_Controller.M_I.WB_Ack::total          366                       (Unspecified)
board.cache_hierarchy.ruby_system.L2Cache_Controller.L1_GET_INSTR |         202      6.59%      6.59% |         140      4.57%     11.17% |         155      5.06%     16.23% |         178      5.81%     22.04% |         207      6.76%     28.80% |         221      7.22%     36.01% |         241      7.87%     43.88% |         161      5.26%     49.13% |         176      5.75%     54.88% |         203      6.63%     61.51% |         182      5.94%     67.45% |         186      6.07%     73.52% |         194      6.33%     79.86% |         187      6.11%     85.96% |         215      7.02%     92.98% |         215      7.02%    100.00% (Unspecified)
board.cache_hierarchy.ruby_system.L2Cache_Controller.L1_GET_INSTR::total         3063                       (Unspecified)
board.cache_hierarchy.ruby_system.L2Cache_Controller.L1_GETS |         164      5.83%      5.83% |         208      7.39%     13.21% |         198      7.03%     20.25% |         203      7.21%     27.46% |         185      6.57%     34.03% |         184      6.54%     40.57% |         173      6.15%     46.71% |         140      4.97%     51.69% |         142      5.04%     56.73% |         187      6.64%     63.37% |         198      7.03%     70.41% |         132      4.69%     75.10% |         168      5.97%     81.07% |         162      5.75%     86.82% |         189      6.71%     93.53% |         182      6.47%    100.00% (Unspecified)
board.cache_hierarchy.ruby_system.L2Cache_Controller.L1_GETS::total         2815                       (Unspecified)
board.cache_hierarchy.ruby_system.L2Cache_Controller.L1_GETX |          45      4.77%      4.77% |          57      6.04%     10.81% |          50      5.30%     16.10% |          51      5.40%     21.50% |          90      9.53%     31.04% |          95     10.06%     41.10% |          75      7.94%     49.05% |          79      8.37%     57.42% |          79      8.37%     65.78% |          46      4.87%     70.66% |          50      5.30%     75.95% |          31      3.28%     79.24% |          62      6.57%     85.81% |          62      6.57%     92.37% |          43      4.56%     96.93% |          29      3.07%    100.00% (Unspecified)
board.cache_hierarchy.ruby_system.L2Cache_Controller.L1_GETX::total          944                       (Unspecified)
board.cache_hierarchy.ruby_system.L2Cache_Controller.L1_UPGRADE |           1      0.42%      0.42% |          57     24.15%     24.58% |          31     13.14%     37.71% |          15      6.36%     44.07% |          15      6.36%     50.42% |          33     13.98%     64.41% |           3      1.27%     65.68% |           5      2.12%     67.80% |           2      0.85%     68.64% |           2      0.85%     69.49% |          35     14.83%     84.32% |           0      0.00%     84.32% |          15      6.36%     90.68% |           3      1.27%     91.95% |          18      7.63%     99.58% |           1      0.42%    100.00% (Unspecified)
board.cache_hierarchy.ruby_system.L2Cache_Controller.L1_UPGRADE::total          236                       (Unspecified)
board.cache_hierarchy.ruby_system.L2Cache_Controller.L1_PUTX |           8      2.19%      2.19% |          19      5.19%      7.38% |          16      4.37%     11.75% |          31      8.47%     20.22% |          47     12.84%     33.06% |          34      9.29%     42.35% |          30      8.20%     50.55% |          15      4.10%     54.64% |          17      4.64%     59.29% |          14      3.83%     63.11% |          29      7.92%     71.04% |          11      3.01%     74.04% |          30      8.20%     82.24% |          40     10.93%     93.17% |          16      4.37%     97.54% |           9      2.46%    100.00% (Unspecified)
board.cache_hierarchy.ruby_system.L2Cache_Controller.L1_PUTX::total          366                       (Unspecified)
board.cache_hierarchy.ruby_system.L2Cache_Controller.Mem_Data |          56      5.08%      5.08% |          71      6.44%     11.51% |          75      6.80%     18.31% |          76      6.89%     25.20% |          90      8.16%     33.36% |          94      8.52%     41.89% |          78      7.07%     48.96% |          69      6.26%     55.21% |          67      6.07%     61.29% |          68      6.17%     67.45% |          51      4.62%     72.08% |          39      3.54%     75.61% |          61      5.53%     81.14% |          72      6.53%     87.67% |          67      6.07%     93.74% |          69      6.26%    100.00% (Unspecified)
board.cache_hierarchy.ruby_system.L2Cache_Controller.Mem_Data::total         1103                       (Unspecified)
board.cache_hierarchy.ruby_system.L2Cache_Controller.WB_Data |          23      3.95%      3.95% |          90     15.46%     19.42% |          65     11.17%     30.58% |          33      5.67%     36.25% |          32      5.50%     41.75% |          58      9.97%     51.72% |          19      3.26%     54.98% |          21      3.61%     58.59% |          19      3.26%     61.86% |          40      6.87%     68.73% |          50      8.59%     77.32% |          19      3.26%     80.58% |          30      5.15%     85.74% |          22      3.78%     89.52% |          36      6.19%     95.70% |          25      4.30%    100.00% (Unspecified)
board.cache_hierarchy.ruby_system.L2Cache_Controller.WB_Data::total          582                       (Unspecified)
board.cache_hierarchy.ruby_system.L2Cache_Controller.WB_Data_clean |          12     27.27%     27.27% |           0      0.00%     27.27% |           1      2.27%     29.55% |          17     38.64%     68.18% |           1      2.27%     70.45% |           1      2.27%     72.73% |           1      2.27%     75.00% |           0      0.00%     75.00% |           1      2.27%     77.27% |           1      2.27%     79.55% |           2      4.55%     84.09% |           0      0.00%     84.09% |           1      2.27%     86.36% |           1      2.27%     88.64% |           3      6.82%     95.45% |           2      4.55%    100.00% (Unspecified)
board.cache_hierarchy.ruby_system.L2Cache_Controller.WB_Data_clean::total           44                       (Unspecified)
board.cache_hierarchy.ruby_system.L2Cache_Controller.Unblock |          35      5.59%      5.59% |          90     14.38%     19.97% |          66     10.54%     30.51% |          50      7.99%     38.50% |          33      5.27%     43.77% |          59      9.42%     53.19% |          20      3.19%     56.39% |          21      3.35%     59.74% |          20      3.19%     62.94% |          41      6.55%     69.49% |          52      8.31%     77.80% |          19      3.04%     80.83% |          31      4.95%     85.78% |          23      3.67%     89.46% |          39      6.23%     95.69% |          27      4.31%    100.00% (Unspecified)
board.cache_hierarchy.ruby_system.L2Cache_Controller.Unblock::total          626                       (Unspecified)
board.cache_hierarchy.ruby_system.L2Cache_Controller.Exclusive_Unblock |         155      4.97%      4.97% |         229      7.34%     12.31% |         197      6.31%     18.62% |         195      6.25%     24.87% |         240      7.69%     32.56% |         253      8.11%     40.67% |         202      6.47%     47.15% |         201      6.44%     53.59% |         201      6.44%     60.03% |         177      5.67%     65.71% |         201      6.44%     72.15% |         144      4.62%     76.76% |         199      6.38%     83.14% |         190      6.09%     89.23% |         180      5.77%     95.00% |         156      5.00%    100.00% (Unspecified)
board.cache_hierarchy.ruby_system.L2Cache_Controller.Exclusive_Unblock::total         3120                       (Unspecified)
board.cache_hierarchy.ruby_system.L2Cache_Controller.NP.L1_GET_INSTR |          26      6.79%      6.79% |          25      6.53%     13.32% |          27      7.05%     20.37% |          28      7.31%     27.68% |          26      6.79%     34.46% |          28      7.31%     41.78% |          27      7.05%     48.83% |          21      5.48%     54.31% |          18      4.70%     59.01% |          20      5.22%     64.23% |          19      4.96%     69.19% |          22      5.74%     74.93% |          26      6.79%     81.72% |          23      6.01%     87.73% |          23      6.01%     93.73% |          24      6.27%    100.00% (Unspecified)
board.cache_hierarchy.ruby_system.L2Cache_Controller.NP.L1_GET_INSTR::total          383                       (Unspecified)
board.cache_hierarchy.ruby_system.L2Cache_Controller.NP.L1_GETS |           0      0.00%      0.00% |           2      2.99%      2.99% |           0      0.00%      2.99% |           0      0.00%      2.99% |          16     23.88%     26.87% |           1      1.49%     28.36% |           4      5.97%     34.33% |           0      0.00%     34.33% |           1      1.49%     35.82% |          17     25.37%     61.19% |           1      1.49%     62.69% |           1      1.49%     64.18% |           3      4.48%     68.66% |           1      1.49%     70.15% |           3      4.48%     74.63% |          17     25.37%    100.00% (Unspecified)
board.cache_hierarchy.ruby_system.L2Cache_Controller.NP.L1_GETS::total           67                       (Unspecified)
board.cache_hierarchy.ruby_system.L2Cache_Controller.NP.L1_GETX |          30      4.59%      4.59% |          44      6.74%     11.33% |          48      7.35%     18.68% |          48      7.35%     26.03% |          48      7.35%     33.38% |          65      9.95%     43.34% |          47      7.20%     50.54% |          48      7.35%     57.89% |          48      7.35%     65.24% |          31      4.75%     69.98% |          31      4.75%     74.73% |          16      2.45%     77.18% |          32      4.90%     82.08% |          48      7.35%     89.43% |          41      6.28%     95.71% |          28      4.29%    100.00% (Unspecified)
board.cache_hierarchy.ruby_system.L2Cache_Controller.NP.L1_GETX::total          653                       (Unspecified)
board.cache_hierarchy.ruby_system.L2Cache_Controller.SS.L1_GET_INSTR |         175      6.56%      6.56% |         115      4.31%     10.87% |         128      4.80%     15.66% |         149      5.58%     21.24% |         181      6.78%     28.03% |         193      7.23%     35.26% |         212      7.94%     43.20% |         139      5.21%     48.41% |         156      5.84%     54.25% |         181      6.78%     61.03% |         163      6.11%     67.14% |         164      6.14%     73.29% |         167      6.26%     79.54% |         164      6.14%     85.69% |         191      7.16%     92.84% |         191      7.16%    100.00% (Unspecified)
board.cache_hierarchy.ruby_system.L2Cache_Controller.SS.L1_GET_INSTR::total         2669                       (Unspecified)
board.cache_hierarchy.ruby_system.L2Cache_Controller.SS.L1_GETS |          20      8.23%      8.23% |           2      0.82%      9.05% |          16      6.58%     15.64% |          24      9.88%     25.51% |          17      7.00%     32.51% |           0      0.00%     32.51% |          29     11.93%     44.44% |           2      0.82%     45.27% |           2      0.82%     46.09% |          17      7.00%     53.09% |          25     10.29%     63.37% |           0      0.00%     63.37% |          15      6.17%     69.55% |          14      5.76%     75.31% |          31     12.76%     88.07% |          29     11.93%    100.00% (Unspecified)
board.cache_hierarchy.ruby_system.L2Cache_Controller.SS.L1_GETS::total          243                       (Unspecified)
board.cache_hierarchy.ruby_system.L2Cache_Controller.SS.L1_UPGRADE |           1      0.43%      0.43% |          57     24.36%     24.79% |          31     13.25%     38.03% |          15      6.41%     44.44% |          15      6.41%     50.85% |          33     14.10%     64.96% |           3      1.28%     66.24% |           5      2.14%     68.38% |           2      0.85%     69.23% |           2      0.85%     70.09% |          33     14.10%     84.19% |           0      0.00%     84.19% |          15      6.41%     90.60% |           3      1.28%     91.88% |          18      7.69%     99.57% |           1      0.43%    100.00% (Unspecified)
board.cache_hierarchy.ruby_system.L2Cache_Controller.SS.L1_UPGRADE::total          234                       (Unspecified)
board.cache_hierarchy.ruby_system.L2Cache_Controller.M.L1_GET_INSTR |           0      0.00%      0.00% |           0      0.00%      0.00% |           0      0.00%      0.00% |           0      0.00%      0.00% |           0      0.00%      0.00% |           0      0.00%      0.00% |           0      0.00%      0.00% |           0      0.00%      0.00% |           0      0.00%      0.00% |           0      0.00%      0.00% |           0      0.00%      0.00% |           0      0.00%      0.00% |           0      0.00%      0.00% |           0      0.00%      0.00% |           1    100.00%    100.00% |           0      0.00%    100.00% (Unspecified)
board.cache_hierarchy.ruby_system.L2Cache_Controller.M.L1_GET_INSTR::total            1                       (Unspecified)
board.cache_hierarchy.ruby_system.L2Cache_Controller.M.L1_GETS |         109      5.81%      5.81% |         113      6.03%     11.84% |         116      6.19%     18.03% |         129      6.88%     24.91% |         119      6.35%     31.25% |         124      6.61%     37.87% |         120      6.40%     44.27% |         117      6.24%     50.51% |         119      6.35%     56.85% |         112      5.97%     62.83% |         117      6.24%     69.07% |         112      5.97%     75.04% |         119      6.35%     81.39% |         124      6.61%     88.00% |         116      6.19%     94.19% |         109      5.81%    100.00% (Unspecified)
board.cache_hierarchy.ruby_system.L2Cache_Controller.M.L1_GETS::total         1875                       (Unspecified)
board.cache_hierarchy.ruby_system.L2Cache_Controller.M.L1_GETX |           2      3.28%      3.28% |           2      3.28%      6.56% |           2      3.28%      9.84% |           3      4.92%     14.75% |          21     34.43%     49.18% |           1      1.64%     50.82% |           2      3.28%     54.10% |           2      3.28%     57.38% |           2      3.28%     60.66% |           2      3.28%     63.93% |           2      3.28%     67.21% |           2      3.28%     70.49% |          14     22.95%     93.44% |           1      1.64%     95.08% |           2      3.28%     98.36% |           1      1.64%    100.00% (Unspecified)
board.cache_hierarchy.ruby_system.L2Cache_Controller.M.L1_GETX::total           61                       (Unspecified)
board.cache_hierarchy.ruby_system.L2Cache_Controller.MT.L1_GETS |          35      5.59%      5.59% |          90     14.38%     19.97% |          66     10.54%     30.51% |          50      7.99%     38.50% |          33      5.27%     43.77% |          59      9.42%     53.19% |          20      3.19%     56.39% |          21      3.35%     59.74% |          20      3.19%     62.94% |          41      6.55%     69.49% |          52      8.31%     77.80% |          19      3.04%     80.83% |          31      4.95%     85.78% |          23      3.67%     89.46% |          39      6.23%     95.69% |          27      4.31%    100.00% (Unspecified)
board.cache_hierarchy.ruby_system.L2Cache_Controller.MT.L1_GETS::total          626                       (Unspecified)
board.cache_hierarchy.ruby_system.L2Cache_Controller.MT.L1_GETX |          13      5.65%      5.65% |          11      4.78%     10.43% |           0      0.00%     10.43% |           0      0.00%     10.43% |          21      9.13%     19.57% |          29     12.61%     32.17% |          26     11.30%     43.48% |          29     12.61%     56.09% |          29     12.61%     68.70% |          13      5.65%     74.35% |          17      7.39%     81.74% |          13      5.65%     87.39% |          16      6.96%     94.35% |          13      5.65%    100.00% |           0      0.00%    100.00% |           0      0.00%    100.00% (Unspecified)
board.cache_hierarchy.ruby_system.L2Cache_Controller.MT.L1_GETX::total          230                       (Unspecified)
board.cache_hierarchy.ruby_system.L2Cache_Controller.MT.L1_PUTX |           8      2.19%      2.19% |          19      5.19%      7.38% |          16      4.37%     11.75% |          31      8.47%     20.22% |          47     12.84%     33.06% |          34      9.29%     42.35% |          30      8.20%     50.55% |          15      4.10%     54.64% |          17      4.64%     59.29% |          14      3.83%     63.11% |          29      7.92%     71.04% |          11      3.01%     74.04% |          30      8.20%     82.24% |          40     10.93%     93.17% |          16      4.37%     97.54% |           9      2.46%    100.00% (Unspecified)
board.cache_hierarchy.ruby_system.L2Cache_Controller.MT.L1_PUTX::total          366                       (Unspecified)
board.cache_hierarchy.ruby_system.L2Cache_Controller.ISS.Mem_Data |           0      0.00%      0.00% |           2      2.99%      2.99% |           0      0.00%      2.99% |           0      0.00%      2.99% |          16     23.88%     26.87% |           1      1.49%     28.36% |           4      5.97%     34.33% |           0      0.00%     34.33% |           1      1.49%     35.82% |          17     25.37%     61.19% |           1      1.49%     62.69% |           1      1.49%     64.18% |           3      4.48%     68.66% |           1      1.49%     70.15% |           3      4.48%     74.63% |          17     25.37%    100.00% (Unspecified)
board.cache_hierarchy.ruby_system.L2Cache_Controller.ISS.Mem_Data::total           67                       (Unspecified)
board.cache_hierarchy.ruby_system.L2Cache_Controller.IS.L1_GET_INSTR |           1     10.00%     10.00% |           0      0.00%     10.00% |           0      0.00%     10.00% |           1     10.00%     20.00% |           0      0.00%     20.00% |           0      0.00%     20.00% |           2     20.00%     40.00% |           1     10.00%     50.00% |           2     20.00%     70.00% |           2     20.00%     90.00% |           0      0.00%     90.00% |           0      0.00%     90.00% |           1     10.00%    100.00% |           0      0.00%    100.00% |           0      0.00%    100.00% |           0      0.00%    100.00% (Unspecified)
board.cache_hierarchy.ruby_system.L2Cache_Controller.IS.L1_GET_INSTR::total           10                       (Unspecified)
board.cache_hierarchy.ruby_system.L2Cache_Controller.IS.Mem_Data |          26      6.79%      6.79% |          25      6.53%     13.32% |          27      7.05%     20.37% |          28      7.31%     27.68% |          26      6.79%     34.46% |          28      7.31%     41.78% |          27      7.05%     48.83% |          21      5.48%     54.31% |          18      4.70%     59.01% |          20      5.22%     64.23% |          19      4.96%     69.19% |          22      5.74%     74.93% |          26      6.79%     81.72% |          23      6.01%     87.73% |          23      6.01%     93.73% |          24      6.27%    100.00% (Unspecified)
board.cache_hierarchy.ruby_system.L2Cache_Controller.IS.Mem_Data::total          383                       (Unspecified)
board.cache_hierarchy.ruby_system.L2Cache_Controller.IM.Mem_Data |          30      4.59%      4.59% |          44      6.74%     11.33% |          48      7.35%     18.68% |          48      7.35%     26.03% |          48      7.35%     33.38% |          65      9.95%     43.34% |          47      7.20%     50.54% |          48      7.35%     57.89% |          48      7.35%     65.24% |          31      4.75%     69.98% |          31      4.75%     74.73% |          16      2.45%     77.18% |          32      4.90%     82.08% |          48      7.35%     89.43% |          41      6.28%     95.71% |          28      4.29%    100.00% (Unspecified)
board.cache_hierarchy.ruby_system.L2Cache_Controller.IM.Mem_Data::total          653                       (Unspecified)
board.cache_hierarchy.ruby_system.L2Cache_Controller.SS_MB.L1_GETS |           0      0.00%      0.00% |           0      0.00%      0.00% |           0      0.00%      0.00% |           0      0.00%      0.00% |           0      0.00%      0.00% |           0      0.00%      0.00% |           0      0.00%      0.00% |           0      0.00%      0.00% |           0      0.00%      0.00% |           0      0.00%      0.00% |           3    100.00%    100.00% |           0      0.00%    100.00% |           0      0.00%    100.00% |           0      0.00%    100.00% |           0      0.00%    100.00% |           0      0.00%    100.00% (Unspecified)
board.cache_hierarchy.ruby_system.L2Cache_Controller.SS_MB.L1_GETS::total            3                       (Unspecified)
board.cache_hierarchy.ruby_system.L2Cache_Controller.SS_MB.L1_UPGRADE |           0      0.00%      0.00% |           0      0.00%      0.00% |           0      0.00%      0.00% |           0      0.00%      0.00% |           0      0.00%      0.00% |           0      0.00%      0.00% |           0      0.00%      0.00% |           0      0.00%      0.00% |           0      0.00%      0.00% |           0      0.00%      0.00% |           1    100.00%    100.00% |           0      0.00%    100.00% |           0      0.00%    100.00% |           0      0.00%    100.00% |           0      0.00%    100.00% |           0      0.00%    100.00% (Unspecified)
board.cache_hierarchy.ruby_system.L2Cache_Controller.SS_MB.L1_UPGRADE::total            1                       (Unspecified)
board.cache_hierarchy.ruby_system.L2Cache_Controller.SS_MB.Exclusive_Unblock |           1      0.43%      0.43% |          57     24.36%     24.79% |          31     13.25%     38.03% |          15      6.41%     44.44% |          15      6.41%     50.85% |          33     14.10%     64.96% |           3      1.28%     66.24% |           5      2.14%     68.38% |           2      0.85%     69.23% |           2      0.85%     70.09% |          33     14.10%     84.19% |           0      0.00%     84.19% |          15      6.41%     90.60% |           3      1.28%     91.88% |          18      7.69%     99.57% |           1      0.43%    100.00% (Unspecified)
board.cache_hierarchy.ruby_system.L2Cache_Controller.SS_MB.Exclusive_Unblock::total          234                       (Unspecified)
board.cache_hierarchy.ruby_system.L2Cache_Controller.MT_MB.Exclusive_Unblock |         154      5.34%      5.34% |         172      5.96%     11.30% |         166      5.75%     17.05% |         180      6.24%     23.28% |         225      7.80%     31.08% |         220      7.62%     38.70% |         199      6.90%     45.60% |         196      6.79%     52.39% |         199      6.90%     59.29% |         175      6.06%     65.35% |         168      5.82%     71.17% |         144      4.99%     76.16% |         184      6.38%     82.54% |         187      6.48%     89.02% |         162      5.61%     94.63% |         155      5.37%    100.00% (Unspecified)
board.cache_hierarchy.ruby_system.L2Cache_Controller.MT_MB.Exclusive_Unblock::total         2886                       (Unspecified)
board.cache_hierarchy.ruby_system.L2Cache_Controller.MT_IIB.L1_GETS |           0      0.00%      0.00% |           1    100.00%    100.00% |           0      0.00%    100.00% |           0      0.00%    100.00% |           0      0.00%    100.00% |           0      0.00%    100.00% |           0      0.00%    100.00% |           0      0.00%    100.00% |           0      0.00%    100.00% |           0      0.00%    100.00% |           0      0.00%    100.00% |           0      0.00%    100.00% |           0      0.00%    100.00% |           0      0.00%    100.00% |           0      0.00%    100.00% |           0      0.00%    100.00% (Unspecified)
board.cache_hierarchy.ruby_system.L2Cache_Controller.MT_IIB.L1_GETS::total            1                       (Unspecified)
board.cache_hierarchy.ruby_system.L2Cache_Controller.MT_IIB.WB_Data |          23      4.32%      4.32% |          60     11.26%     15.57% |          65     12.20%     27.77% |          33      6.19%     33.96% |          32      6.00%     39.96% |          58     10.88%     50.84% |          19      3.56%     54.41% |          20      3.75%     58.16% |          19      3.56%     61.73% |          40      7.50%     69.23% |          33      6.19%     75.42% |          19      3.56%     78.99% |          30      5.63%     84.62% |          22      4.13%     88.74% |          36      6.75%     95.50% |          24      4.50%    100.00% (Unspecified)
board.cache_hierarchy.ruby_system.L2Cache_Controller.MT_IIB.WB_Data::total          533                       (Unspecified)
board.cache_hierarchy.ruby_system.L2Cache_Controller.MT_IIB.WB_Data_clean |          12     41.38%     41.38% |           0      0.00%     41.38% |           1      3.45%     44.83% |           2      6.90%     51.72% |           1      3.45%     55.17% |           1      3.45%     58.62% |           1      3.45%     62.07% |           0      0.00%     62.07% |           1      3.45%     65.52% |           1      3.45%     68.97% |           2      6.90%     75.86% |           0      0.00%     75.86% |           1      3.45%     79.31% |           1      3.45%     82.76% |           3     10.34%     93.10% |           2      6.90%    100.00% (Unspecified)
board.cache_hierarchy.ruby_system.L2Cache_Controller.MT_IIB.WB_Data_clean::total           29                       (Unspecified)
board.cache_hierarchy.ruby_system.L2Cache_Controller.MT_IIB.Unblock |           0      0.00%      0.00% |          30     46.88%     46.88% |           0      0.00%     46.88% |          15     23.44%     70.31% |           0      0.00%     70.31% |           0      0.00%     70.31% |           0      0.00%     70.31% |           1      1.56%     71.88% |           0      0.00%     71.88% |           0      0.00%     71.88% |          17     26.56%     98.44% |           0      0.00%     98.44% |           0      0.00%     98.44% |           0      0.00%     98.44% |           0      0.00%     98.44% |           1      1.56%    100.00% (Unspecified)
board.cache_hierarchy.ruby_system.L2Cache_Controller.MT_IIB.Unblock::total           64                       (Unspecified)
board.cache_hierarchy.ruby_system.L2Cache_Controller.MT_IB.WB_Data |           0      0.00%      0.00% |          30     61.22%     61.22% |           0      0.00%     61.22% |           0      0.00%     61.22% |           0      0.00%     61.22% |           0      0.00%     61.22% |           0      0.00%     61.22% |           1      2.04%     63.27% |           0      0.00%     63.27% |           0      0.00%     63.27% |          17     34.69%     97.96% |           0      0.00%     97.96% |           0      0.00%     97.96% |           0      0.00%     97.96% |           0      0.00%     97.96% |           1      2.04%    100.00% (Unspecified)
board.cache_hierarchy.ruby_system.L2Cache_Controller.MT_IB.WB_Data::total           49                       (Unspecified)
board.cache_hierarchy.ruby_system.L2Cache_Controller.MT_IB.WB_Data_clean |           0      0.00%      0.00% |           0      0.00%      0.00% |           0      0.00%      0.00% |          15    100.00%    100.00% |           0      0.00%    100.00% |           0      0.00%    100.00% |           0      0.00%    100.00% |           0      0.00%    100.00% |           0      0.00%    100.00% |           0      0.00%    100.00% |           0      0.00%    100.00% |           0      0.00%    100.00% |           0      0.00%    100.00% |           0      0.00%    100.00% |           0      0.00%    100.00% |           0      0.00%    100.00% (Unspecified)
board.cache_hierarchy.ruby_system.L2Cache_Controller.MT_IB.WB_Data_clean::total           15                       (Unspecified)
board.cache_hierarchy.ruby_system.L2Cache_Controller.MT_SB.L1_UPGRADE |           0      0.00%      0.00% |           0      0.00%      0.00% |           0      0.00%      0.00% |           0      0.00%      0.00% |           0      0.00%      0.00% |           0      0.00%      0.00% |           0      0.00%      0.00% |           0      0.00%      0.00% |           0      0.00%      0.00% |           0      0.00%      0.00% |           1    100.00%    100.00% |           0      0.00%    100.00% |           0      0.00%    100.00% |           0      0.00%    100.00% |           0      0.00%    100.00% |           0      0.00%    100.00% (Unspecified)
board.cache_hierarchy.ruby_system.L2Cache_Controller.MT_SB.L1_UPGRADE::total            1                       (Unspecified)
board.cache_hierarchy.ruby_system.L2Cache_Controller.MT_SB.Unblock |          35      6.23%      6.23% |          60     10.68%     16.90% |          66     11.74%     28.65% |          35      6.23%     34.88% |          33      5.87%     40.75% |          59     10.50%     51.25% |          20      3.56%     54.80% |          20      3.56%     58.36% |          20      3.56%     61.92% |          41      7.30%     69.22% |          35      6.23%     75.44% |          19      3.38%     78.83% |          31      5.52%     84.34% |          23      4.09%     88.43% |          39      6.94%     95.37% |          26      4.63%    100.00% (Unspecified)
board.cache_hierarchy.ruby_system.L2Cache_Controller.MT_SB.Unblock::total          562                       (Unspecified)
board.cache_hierarchy.ruby_system.RequestType.LD.latency_hist_seqr::bucket_size          256                       (Unspecified)
board.cache_hierarchy.ruby_system.RequestType.LD.latency_hist_seqr::max_bucket         2559                       (Unspecified)
board.cache_hierarchy.ruby_system.RequestType.LD.latency_hist_seqr::samples       316362                       (Unspecified)
board.cache_hierarchy.ruby_system.RequestType.LD.latency_hist_seqr::mean     1.530876                       (Unspecified)
board.cache_hierarchy.ruby_system.RequestType.LD.latency_hist_seqr::gmean     1.036352                       (Unspecified)
board.cache_hierarchy.ruby_system.RequestType.LD.latency_hist_seqr::stdev     6.943894                       (Unspecified)
board.cache_hierarchy.ruby_system.RequestType.LD.latency_hist_seqr |      316351    100.00%    100.00% |           9      0.00%    100.00% |           0      0.00%    100.00% |           0      0.00%    100.00% |           0      0.00%    100.00% |           2      0.00%    100.00% |           0      0.00%    100.00% |           0      0.00%    100.00% |           0      0.00%    100.00% |           0      0.00%    100.00% (Unspecified)
board.cache_hierarchy.ruby_system.RequestType.LD.latency_hist_seqr::total       316362                       (Unspecified)
board.cache_hierarchy.ruby_system.RequestType.LD.hit_latency_hist_seqr::bucket_size            1                       (Unspecified)
board.cache_hierarchy.ruby_system.RequestType.LD.hit_latency_hist_seqr::max_bucket            9                       (Unspecified)
board.cache_hierarchy.ruby_system.RequestType.LD.hit_latency_hist_seqr::samples       313551                       (Unspecified)
board.cache_hierarchy.ruby_system.RequestType.LD.hit_latency_hist_seqr::mean     1.000010                       (Unspecified)
board.cache_hierarchy.ruby_system.RequestType.LD.hit_latency_hist_seqr::gmean     1.000007                       (Unspecified)
board.cache_hierarchy.ruby_system.RequestType.LD.hit_latency_hist_seqr::stdev     0.003093                       (Unspecified)
board.cache_hierarchy.ruby_system.RequestType.LD.hit_latency_hist_seqr |           0      0.00%      0.00% |      313548    100.00%    100.00% |           3      0.00%    100.00% |           0      0.00%    100.00% |           0      0.00%    100.00% |           0      0.00%    100.00% |           0      0.00%    100.00% |           0      0.00%    100.00% |           0      0.00%    100.00% |           0      0.00%    100.00% (Unspecified)
board.cache_hierarchy.ruby_system.RequestType.LD.hit_latency_hist_seqr::total       313551                       (Unspecified)
board.cache_hierarchy.ruby_system.RequestType.LD.miss_latency_hist_seqr::bucket_size          256                       (Unspecified)
board.cache_hierarchy.ruby_system.RequestType.LD.miss_latency_hist_seqr::max_bucket         2559                       (Unspecified)
board.cache_hierarchy.ruby_system.RequestType.LD.miss_latency_hist_seqr::samples         2811                       (Unspecified)
board.cache_hierarchy.ruby_system.RequestType.LD.miss_latency_hist_seqr::mean    60.745998                       (Unspecified)
board.cache_hierarchy.ruby_system.RequestType.LD.miss_latency_hist_seqr::gmean    55.579272                       (Unspecified)
board.cache_hierarchy.ruby_system.RequestType.LD.miss_latency_hist_seqr::stdev    43.467346                       (Unspecified)
[...]
board.processor.cores9.core.decode.runCycles        37726                       # Number of cycles decode is running (Cycle)
board.processor.cores9.core.decode.unblockCycles         8655                       # Number of cycles decode is unblocking (Cycle)
board.processor.cores9.core.decode.squashCycles         2191                       # Number of cycles decode is squashing (Cycle)
board.processor.cores9.core.decode.branchResolved        10685                       # Number of times decode resolved a branch (Count)
board.processor.cores9.core.decode.branchMispred          114                       # Number of times decode detected a branch misprediction (Count)
board.processor.cores9.core.decode.decodedInsts       343694                       # Number of instructions handled by decode (Count)
board.processor.cores9.core.decode.squashedInsts          577                       # Number of squashed instructions handled by decode (Count)
board.processor.cores9.core.executeStats0.numInsts       223082                       # Number of executed instructions (Count)
board.processor.cores9.core.executeStats0.numNop            0                       # Number of nop insts executed (Count)
board.processor.cores9.core.executeStats0.numBranches        12975                       # Number of branches executed (Count)
board.processor.cores9.core.executeStats0.numLoadInsts        56081                       # Number of load instructions executed (Count)
board.processor.cores9.core.executeStats0.numStoreInsts        16907                       # Number of stores executed (Count)
board.processor.cores9.core.executeStats0.instRate     1.319473                       # Inst execution rate ((Count/Cycle))
board.processor.cores9.core.executeStats0.numCCRegReads        34917                       # Number of times the CC registers were read (Count)
board.processor.cores9.core.executeStats0.numCCRegWrites        54649                       # Number of times the CC registers were written (Count)
board.processor.cores9.core.executeStats0.numFpRegReads           15                       # Number of times the floating registers were read (Count)
board.processor.cores9.core.executeStats0.numFpRegWrites           10                       # Number of times the floating registers were written (Count)
board.processor.cores9.core.executeStats0.numIntRegReads       245516                       # Number of times the integer registers were read (Count)
board.processor.cores9.core.executeStats0.numIntRegWrites       180251                       # Number of times the integer registers were written (Count)
board.processor.cores9.core.executeStats0.numMemRefs        72988                       # Number of memory refs (Count)
board.processor.cores9.core.executeStats0.numMiscRegReads       100894                       # Number of times the Misc registers were read (Count)
board.processor.cores9.core.executeStats0.numMiscRegWrites            1                       # Number of times the Misc registers were written (Count)
board.processor.cores9.core.executeStats0.numVecAluAccesses            0                       # Number of vector alu accesses (Count)
board.processor.cores9.core.executeStats0.numDiscardedOps            0                       # Number of ops (including micro ops) which were discarded before commit (Count)
board.processor.cores9.core.fetch.predictedBranches        18995                       # Number of branches that fetch has predicted taken (Count)
board.processor.cores9.core.fetch.cycles       126272                       # Number of cycles fetch has run and was not squashing or blocked (Cycle)
board.processor.cores9.core.fetch.squashCycles         4606                       # Number of cycles fetch has spent squashing (Cycle)
board.processor.cores9.core.fetch.miscStallCycles           35                       # Number of cycles fetch has spent waiting on interrupts, or bad addresses, or out of MSHRs (Cycle)
board.processor.cores9.core.fetch.pendingTrapStallCycles          204                       # Number of stall cycles due to pending traps (Cycle)
board.processor.cores9.core.fetch.cacheLines        33565                       # Number of cache lines fetched (Count)
board.processor.cores9.core.fetch.icacheSquashes         2147                       # Number of outstanding Icache misses that were squashed (Count)
board.processor.cores9.core.fetch.nisnDist::samples       166773                       # Number of instructions fetched each cycle (Total) (Count)
board.processor.cores9.core.fetch.nisnDist::mean     2.363776                       # Number of instructions fetched each cycle (Total) (Count)
board.processor.cores9.core.fetch.nisnDist::stdev     3.352288                       # Number of instructions fetched each cycle (Total) (Count)
board.processor.cores9.core.fetch.nisnDist::underflows            0      0.00%      0.00% # Number of instructions fetched each cycle (Total) (Count)
board.processor.cores9.core.fetch.nisnDist::0       105963     63.54%     63.54% # Number of instructions fetched each cycle (Total) (Count)
board.processor.cores9.core.fetch.nisnDist::1           66      0.04%     63.58% # Number of instructions fetched each cycle (Total) (Count)
board.processor.cores9.core.fetch.nisnDist::2         4126      2.47%     66.05% # Number of instructions fetched each cycle (Total) (Count)
board.processor.cores9.core.fetch.nisnDist::3         6220      3.73%     69.78% # Number of instructions fetched each cycle (Total) (Count)
board.processor.cores9.core.fetch.nisnDist::4         2133      1.28%     71.06% # Number of instructions fetched each cycle (Total) (Count)
board.processor.cores9.core.fetch.nisnDist::5          149      0.09%     71.15% # Number of instructions fetched each cycle (Total) (Count)
board.processor.cores9.core.fetch.nisnDist::6        10349      6.21%     77.35% # Number of instructions fetched each cycle (Total) (Count)
board.processor.cores9.core.fetch.nisnDist::7         6271      3.76%     81.11% # Number of instructions fetched each cycle (Total) (Count)
board.processor.cores9.core.fetch.nisnDist::8        31496     18.89%    100.00% # Number of instructions fetched each cycle (Total) (Count)
board.processor.cores9.core.fetch.nisnDist::overflows            0      0.00%    100.00% # Number of instructions fetched each cycle (Total) (Count)
board.processor.cores9.core.fetch.nisnDist::min_value            0                       # Number of instructions fetched each cycle (Total) (Count)
board.processor.cores9.core.fetch.nisnDist::max_value            8                       # Number of instructions fetched each cycle (Total) (Count)
board.processor.cores9.core.fetch.nisnDist::total       166773                       # Number of instructions fetched each cycle (Total) (Count)
board.processor.cores9.core.fetchStats0.numInsts       235711                       # Number of instructions fetched (thread level) (Count)
board.processor.cores9.core.fetchStats0.numOps            0                       # Number of ops (including micro ops) fetched (thread level) (Count)
board.processor.cores9.core.fetchStats0.fetchRate     1.394170                       # Number of inst fetches per cycle ((Count/Cycle))
board.processor.cores9.core.fetchStats0.numBranches        25634                       # Number of branches fetched (Count)
board.processor.cores9.core.fetchStats0.branchRate     0.151619                       # Number of branch fetches per cycle (Ratio)
board.processor.cores9.core.fetchStats0.icacheStallCycles        37959                       # ICache total stall cycles (Cycle)
board.processor.cores9.core.fetchStats0.numFetchSuspends            0                       # Number of times Execute suspended instruction fetching (Count)
board.processor.cores9.core.iew.idleCycles            0                       # Number of cycles IEW is idle (Cycle)
board.processor.cores9.core.iew.squashCycles         2191                       # Number of cycles IEW is squashing (Cycle)
board.processor.cores9.core.iew.blockCycles        55181                       # Number of cycles IEW is blocking (Cycle)
board.processor.cores9.core.iew.unblockCycles         4259                       # Number of cycles IEW is unblocking (Cycle)
board.processor.cores9.core.iew.dispatchedInsts       310213                       # Number of instructions dispatched to IQ (Count)
board.processor.cores9.core.iew.dispSquashedInsts           16                       # Number of squashed instructions skipped by dispatch (Count)
board.processor.cores9.core.iew.dispLoadInsts        76807                       # Number of dispatched load instructions (Count)
board.processor.cores9.core.iew.dispStoreInsts        25163                       # Number of dispatched store instructions (Count)
board.processor.cores9.core.iew.dispNonSpecInsts         4116                       # Number of dispatched non-speculative instructions (Count)
board.processor.cores9.core.iew.iqFullEvents           20                       # Number of times the IQ has become full, causing a stall (Count)
board.processor.cores9.core.iew.lsqFullEvents           31                       # Number of times the LSQ has become full, causing a stall (Count)
board.processor.cores9.core.iew.memOrderViolationEvents         2056                       # Number of memory order violations (Count)
board.processor.cores9.core.iew.predictedTakenIncorrect            6                       # Number of branches that were predicted taken incorrectly (Count)
board.processor.cores9.core.iew.predictedNotTakenIncorrect          135                       # Number of branches that were predicted not taken incorrectly (Count)
board.processor.cores9.core.iew.branchMispredicts          141                       # Number of branch mispredicts detected at execute (Count)
board.processor.cores9.core.iew.instsToCommit       223044                       # Cumulative count of insts sent to commit (Count)
board.processor.cores9.core.iew.writebackCount       222903                       # Cumulative count of insts written-back (Count)
board.processor.cores9.core.iew.producerInst       165366                       # Number of instructions producing a value (Count)
board.processor.cores9.core.iew.consumerInst       240625                       # Number of instructions consuming a value (Count)
board.processor.cores9.core.iew.wbRate       1.318414                       # Insts written-back per cycle ((Count/Cycle))
board.processor.cores9.core.iew.wbFanout     0.687235                       # Average fanout of values written-back ((Count/Count))
board.processor.cores9.core.interrupts.clk_domain.clock         5328                       # Clock period in ticks (Tick)
board.processor.cores9.core.lsq0.forwLoads         4275                       # Number of loads that had data forwarded from stores (Count)
board.processor.cores9.core.lsq0.squashedLoads        43468                       # Number of loads squashed (Count)
board.processor.cores9.core.lsq0.ignoredResponses            0                       # Number of memory responses ignored because the instruction is squashed (Count)
board.processor.cores9.core.lsq0.memOrderViolation         2056                       # Number of memory ordering violations (Count)
board.processor.cores9.core.lsq0.squashedStores        12434                       # Number of stores squashed (Count)
board.processor.cores9.core.lsq0.rescheduledLoads            0                       # Number of loads that were rescheduled (Count)
board.processor.cores9.core.lsq0.blockedByCache            0                       # Number of times an access to memory failed due to the cache being blocked (Count)
board.processor.cores9.core.lsq0.loadToUse::samples        33339                       # Distribution of cycle latency between the first time a load is issued and its completion (Unspecified)
board.processor.cores9.core.lsq0.loadToUse::mean     3.174600                       # Distribution of cycle latency between the first time a load is issued and its completion (Unspecified)
board.processor.cores9.core.lsq0.loadToUse::stdev     4.755081                       # Distribution of cycle latency between the first time a load is issued and its completion (Unspecified)
board.processor.cores9.core.lsq0.loadToUse::0-9        33170     99.49%     99.49% # Distribution of cycle latency between the first time a load is issued and its completion (Unspecified)
board.processor.cores9.core.lsq0.loadToUse::10-19            9      0.03%     99.52% # Distribution of cycle latency between the first time a load is issued and its completion (Unspecified)
board.processor.cores9.core.lsq0.loadToUse::20-29            2      0.01%     99.53% # Distribution of cycle latency between the first time a load is issued and its completion (Unspecified)
board.processor.cores9.core.lsq0.loadToUse::50-59          128      0.38%     99.91% # Distribution of cycle latency between the first time a load is issued and its completion (Unspecified)
board.processor.cores9.core.lsq0.loadToUse::60-69           15      0.04%     99.96% # Distribution of cycle latency between the first time a load is issued and its completion (Unspecified)
board.processor.cores9.core.lsq0.loadToUse::80-89           11      0.03%     99.99% # Distribution of cycle latency between the first time a load is issued and its completion (Unspecified)
board.processor.cores9.core.lsq0.loadToUse::150-159            1      0.00%     99.99% # Distribution of cycle latency between the first time a load is issued and its completion (Unspecified)
board.processor.cores9.core.lsq0.loadToUse::180-189            1      0.00%     99.99% # Distribution of cycle latency between the first time a load is issued and its completion (Unspecified)
board.processor.cores9.core.lsq0.loadToUse::270-279            1      0.00%    100.00% # Distribution of cycle latency between the first time a load is issued and its completion (Unspecified)
board.processor.cores9.core.lsq0.loadToUse::280-289            1      0.00%    100.00% # Distribution of cycle latency between the first time a load is issued and its completion (Unspecified)
board.processor.cores9.core.lsq0.loadToUse::min_value            2                       # Distribution of cycle latency between the first time a load is issued and its completion (Unspecified)
board.processor.cores9.core.lsq0.loadToUse::max_value          287                       # Distribution of cycle latency between the first time a load is issued and its completion (Unspecified)
board.processor.cores9.core.lsq0.loadToUse::total        33339                       # Distribution of cycle latency between the first time a load is issued and its completion (Unspecified)
board.processor.cores9.core.mmu.dtb.rdAccesses        56081                       # TLB accesses on read requests (Count)
board.processor.cores9.core.mmu.dtb.wrAccesses        16907                       # TLB accesses on write requests (Count)
board.processor.cores9.core.mmu.dtb.rdMisses           69                       # TLB misses on read requests (Count)
board.processor.cores9.core.mmu.dtb.wrMisses           11                       # TLB misses on write requests (Count)
board.processor.cores9.core.mmu.dtb.walker.power_state.pwrStateResidencyTicks::UNDEFINED    374159133                       # Cumulative time (in ticks) in various power states (Tick)
board.processor.cores9.core.mmu.itb.rdAccesses            0                       # TLB accesses on read requests (Count)
board.processor.cores9.core.mmu.itb.wrAccesses        33602                       # TLB accesses on write requests (Count)
board.processor.cores9.core.mmu.itb.rdMisses            0                       # TLB misses on read requests (Count)
board.processor.cores9.core.mmu.itb.wrMisses           89                       # TLB misses on write requests (Count)
board.processor.cores9.core.mmu.itb.walker.power_state.pwrStateResidencyTicks::UNDEFINED    374159133                       # Cumulative time (in ticks) in various power states (Tick)
board.processor.cores9.core.power_state.pwrStateResidencyTicks::ON    374159133                       # Cumulative time (in ticks) in various power states (Tick)
board.processor.cores9.core.rename.squashCycles         2191                       # Number of cycles rename is squashing (Cycle)
board.processor.cores9.core.rename.idleCycles        25858                       # Number of cycles rename is idle (Cycle)
board.processor.cores9.core.rename.blockCycles        72704                       # Number of cycles rename is blocking (Cycle)
board.processor.cores9.core.rename.serializeStallCycles            0                       # count of cycles rename stalled for serializing inst (Cycle)
board.processor.cores9.core.rename.runCycles        42132                       # Number of cycles rename is running (Cycle)
board.processor.cores9.core.rename.unblockCycles        23888                       # Number of cycles rename is unblocking (Cycle)
board.processor.cores9.core.rename.renamedInsts       327066                       # Number of instructions processed by rename (Count)
board.processor.cores9.core.rename.ROBFullEvents           18                       # Number of times rename has blocked due to ROB full (Count)
board.processor.cores9.core.rename.IQFullEvents        23023                       # Number of times rename has blocked due to IQ full (Count)
board.processor.cores9.core.rename.LQFullEvents           65                       # Number of times rename has blocked due to LQ full (Count)
board.processor.cores9.core.rename.SQFullEvents          772                       # Number of times rename has blocked due to SQ full (Count)
board.processor.cores9.core.rename.renamedOperands       516347                       # Number of destination operands rename has renamed (Count)
board.processor.cores9.core.rename.lookups      1021411                       # Number of register rename lookups that rename has made (Count)
board.processor.cores9.core.rename.intLookups       386652                       # Number of integer rename lookups (Count)
board.processor.cores9.core.rename.fpLookups           15                       # Number of floating rename lookups (Count)
board.processor.cores9.core.rename.committedMaps       208650                       # Number of HB maps that are committed (Count)
board.processor.cores9.core.rename.undoneMaps       307697                       # Number of HB maps that are undone due to squashing (Count)
board.processor.cores9.core.rename.serializing            0                       # count of serializing insts renamed (Count)
board.processor.cores9.core.rename.tempSerializing            0                       # count of temporary serializing insts renamed (Count)
board.processor.cores9.core.rename.skidInsts        35873                       # count of insts added to the skid buffer (Count)
board.processor.cores9.core.rob.reads          445685                       # The number of ROB reads (Count)
board.processor.cores9.core.rob.writes         643019                       # The number of ROB writes (Count)
board.processor.cores9.core.thread_0.numInsts        79780                       # Number of Instructions committed (Count)
board.processor.cores9.core.thread_0.numOps       135227                       # Number of Ops committed (Count)
board.processor.cores9.core.thread_0.numMemRefs            0                       # Number of Memory References (Count)
board.workload.inst.arm                             0                       # number of arm instructions executed (Count)
board.workload.inst.quiesce                         0                       # number of quiesce instructions executed (Count)

---------- End Simulation Statistics   ----------
