
---------- Begin Simulation Statistics ----------
simSeconds                                   0.000145                       # Number of seconds simulated (Second)
simTicks                                    145203651                       # Number of ticks simulated (Tick)
finalTick                                   407829429                       # Number of ticks from beginning of simulation (restored from checkpoints and never reset) (Tick)
simFreq                                  1000000000000                       # The number of ticks per simulated second ((Tick/Second))
hostSeconds                                     24.16                       # Real time elapsed on the host (Second)
hostTickRate                                  6009375                       # The number of ticks simulated per host second (ticks/s) ((Tick/Second))
hostMemory                                    1804612                       # Number of bytes of host memory used (Byte)
simInsts                                      1701266                       # Number of instructions simulated (Count)
simOps                                        2634292                       # Number of ops (including micro ops) simulated (Count)
hostInstRate                                    70408                       # Simulator instruction rate (inst/s) ((Count/Second))
hostOpRate                                     109022                       # Simulator op (including micro ops) rate (op/s) ((Count/Second))
board.cache_hierarchy.ruby_system.delayHistogram::bucket_size          256                       # delay histogram for all message (Unspecified)
board.cache_hierarchy.ruby_system.delayHistogram::max_bucket         2559                       # delay histogram for all message (Unspecified)
board.cache_hierarchy.ruby_system.delayHistogram::samples        90874                       # delay histogram for all message (Unspecified)
board.cache_hierarchy.ruby_system.delayHistogram::mean     2.454134                       # delay histogram for all message (Unspecified)
board.cache_hierarchy.ruby_system.delayHistogram::stdev    15.056473                       # delay histogram for all message (Unspecified)
board.cache_hierarchy.ruby_system.delayHistogram |       90852     99.98%     99.98% |           8      0.01%     99.98% |           4      0.00%     99.99% |           4      0.00%     99.99% |           3      0.00%    100.00% |           3      0.00%    100.00% |           0      0.00%    100.00% |           0      0.00%    100.00% |           0      0.00%    100.00% |           0      0.00%    100.00% # delay histogram for all message (Unspecified)
board.cache_hierarchy.ruby_system.delayHistogram::total        90874                       # delay histogram for all message (Unspecified)
board.cache_hierarchy.ruby_system.m_outstandReqHistSeqr::bucket_size            2                       (Unspecified)
board.cache_hierarchy.ruby_system.m_outstandReqHistSeqr::max_bucket           19                       (Unspecified)
board.cache_hierarchy.ruby_system.m_outstandReqHistSeqr::samples      1169126                       (Unspecified)
board.cache_hierarchy.ruby_system.m_outstandReqHistSeqr::mean     1.355602                       (Unspecified)
board.cache_hierarchy.ruby_system.m_outstandReqHistSeqr::gmean     1.269923                       (Unspecified)
board.cache_hierarchy.ruby_system.m_outstandReqHistSeqr::stdev     0.564976                       (Unspecified)
board.cache_hierarchy.ruby_system.m_outstandReqHistSeqr |      777321     66.49%     66.49% |      386895     33.09%     99.58% |        3913      0.33%     99.91% |         457      0.04%     99.95% |         237      0.02%     99.97% |         113      0.01%     99.98% |         105      0.01%     99.99% |          63      0.01%    100.00% |          22      0.00%    100.00% |           0      0.00%    100.00% (Unspecified)
board.cache_hierarchy.ruby_system.m_outstandReqHistSeqr::total      1169126                       (Unspecified)
board.cache_hierarchy.ruby_system.m_latencyHistSeqr::bucket_size          256                       (Unspecified)
board.cache_hierarchy.ruby_system.m_latencyHistSeqr::max_bucket         2559                       (Unspecified)
board.cache_hierarchy.ruby_system.m_latencyHistSeqr::samples      1169617                       (Unspecified)
board.cache_hierarchy.ruby_system.m_latencyHistSeqr::mean     3.109813                       (Unspecified)
board.cache_hierarchy.ruby_system.m_latencyHistSeqr::gmean     1.143712                       (Unspecified)
board.cache_hierarchy.ruby_system.m_latencyHistSeqr::stdev    13.390171                       (Unspecified)
board.cache_hierarchy.ruby_system.m_latencyHistSeqr |     1169537     99.99%     99.99% |          59      0.01%    100.00% |           4      0.00%    100.00% |           7      0.00%    100.00% |           8      0.00%    100.00% |           2      0.00%    100.00% |           0      0.00%    100.00% |           0      0.00%    100.00% |           0      0.00%    100.00% |           0      0.00%    100.00% (Unspecified)
board.cache_hierarchy.ruby_system.m_latencyHistSeqr::total      1169617                       (Unspecified)
board.cache_hierarchy.ruby_system.m_hitLatencyHistSeqr::bucket_size           32                       (Unspecified)
board.cache_hierarchy.ruby_system.m_hitLatencyHistSeqr::max_bucket          319                       (Unspecified)
board.cache_hierarchy.ruby_system.m_hitLatencyHistSeqr::samples      1131234                       (Unspecified)
board.cache_hierarchy.ruby_system.m_hitLatencyHistSeqr::mean     1.000896                       (Unspecified)
board.cache_hierarchy.ruby_system.m_hitLatencyHistSeqr::gmean     1.000320                       (Unspecified)
board.cache_hierarchy.ruby_system.m_hitLatencyHistSeqr::stdev     0.280915                       (Unspecified)
board.cache_hierarchy.ruby_system.m_hitLatencyHistSeqr |     1131231    100.00%    100.00% |           0      0.00%    100.00% |           0      0.00%    100.00% |           0      0.00%    100.00% |           1      0.00%    100.00% |           2      0.00%    100.00% |           0      0.00%    100.00% |           0      0.00%    100.00% |           0      0.00%    100.00% |           0      0.00%    100.00% (Unspecified)
board.cache_hierarchy.ruby_system.m_hitLatencyHistSeqr::total      1131234                       (Unspecified)
board.cache_hierarchy.ruby_system.m_missLatencyHistSeqr::bucket_size          256                       (Unspecified)
board.cache_hierarchy.ruby_system.m_missLatencyHistSeqr::max_bucket         2559                       (Unspecified)
board.cache_hierarchy.ruby_system.m_missLatencyHistSeqr::samples        38383                       (Unspecified)
board.cache_hierarchy.ruby_system.m_missLatencyHistSeqr::mean    65.264362                       (Unspecified)
board.cache_hierarchy.ruby_system.m_missLatencyHistSeqr::gmean    59.285480                       (Unspecified)
board.cache_hierarchy.ruby_system.m_missLatencyHistSeqr::stdev    38.301665                       (Unspecified)
board.cache_hierarchy.ruby_system.m_missLatencyHistSeqr |       38303     99.79%     99.79% |          59      0.15%     99.95% |           4      0.01%     99.96% |           7      0.02%     99.97% |           8      0.02%     99.99% |           2      0.01%    100.00% |           0      0.00%    100.00% |           0      0.00%    100.00% |           0      0.00%    100.00% |           0      0.00%    100.00% (Unspecified)
board.cache_hierarchy.ruby_system.m_missLatencyHistSeqr::total        38383                       (Unspecified)
board.cache_hierarchy.ruby_system.delayVCHist.vnet_0::bucket_size          256                       # delay histogram for vnet_0 (Unspecified)
board.cache_hierarchy.ruby_system.delayVCHist.vnet_0::max_bucket         2559                       # delay histogram for vnet_0 (Unspecified)
board.cache_hierarchy.ruby_system.delayVCHist.vnet_0::samples        44919                       # delay histogram for vnet_0 (Unspecified)
board.cache_hierarchy.ruby_system.delayVCHist.vnet_0::mean     3.328992                       # delay histogram for vnet_0 (Unspecified)
board.cache_hierarchy.ruby_system.delayVCHist.vnet_0::stdev    20.676568                       # delay histogram for vnet_0 (Unspecified)
board.cache_hierarchy.ruby_system.delayVCHist.vnet_0 |       44897     99.95%     99.95% |           8      0.02%     99.97% |           4      0.01%     99.98% |           4      0.01%     99.99% |           3      0.01%     99.99% |           3      0.01%    100.00% |           0      0.00%    100.00% |           0      0.00%    100.00% |           0      0.00%    100.00% |           0      0.00%    100.00% # delay histogram for vnet_0 (Unspecified)
board.cache_hierarchy.ruby_system.delayVCHist.vnet_0::total        44919                       # delay histogram for vnet_0 (Unspecified)
board.cache_hierarchy.ruby_system.delayVCHist.vnet_1::bucket_size            8                       # delay histogram for vnet_1 (Unspecified)
board.cache_hierarchy.ruby_system.delayVCHist.vnet_1::max_bucket           79                       # delay histogram for vnet_1 (Unspecified)
board.cache_hierarchy.ruby_system.delayVCHist.vnet_1::samples        43050                       # delay histogram for vnet_1 (Unspecified)
board.cache_hierarchy.ruby_system.delayVCHist.vnet_1::mean     1.706899                       # delay histogram for vnet_1 (Unspecified)
board.cache_hierarchy.ruby_system.delayVCHist.vnet_1::stdev     5.540316                       # delay histogram for vnet_1 (Unspecified)
board.cache_hierarchy.ruby_system.delayVCHist.vnet_1 |       38060     88.41%     88.41% |        3269      7.59%     96.00% |         818      1.90%     97.90% |         497      1.15%     99.06% |         296      0.69%     99.74% |          99      0.23%     99.97% |          11      0.03%    100.00% |           0      0.00%    100.00% |           0      0.00%    100.00% |           0      0.00%    100.00% # delay histogram for vnet_1 (Unspecified)
board.cache_hierarchy.ruby_system.delayVCHist.vnet_1::total        43050                       # delay histogram for vnet_1 (Unspecified)
board.cache_hierarchy.ruby_system.delayVCHist.vnet_2::bucket_size            1                       # delay histogram for vnet_2 (Unspecified)
board.cache_hierarchy.ruby_system.delayVCHist.vnet_2::max_bucket            9                       # delay histogram for vnet_2 (Unspecified)
board.cache_hierarchy.ruby_system.delayVCHist.vnet_2::samples         2905                       # delay histogram for vnet_2 (Unspecified)
board.cache_hierarchy.ruby_system.delayVCHist.vnet_2 |        2905    100.00%    100.00% |           0      0.00%    100.00% |           0      0.00%    100.00% |           0      0.00%    100.00% |           0      0.00%    100.00% |           0      0.00%    100.00% |           0      0.00%    100.00% |           0      0.00%    100.00% |           0      0.00%    100.00% |           0      0.00%    100.00% # delay histogram for vnet_2 (Unspecified)
board.cache_hierarchy.ruby_system.delayVCHist.vnet_2::total         2905                       # delay histogram for vnet_2 (Unspecified)
board.cache_hierarchy.ruby_system.Directory_Controller.Fetch         1328      0.00%      0.00% (Unspecified)
board.cache_hierarchy.ruby_system.Directory_Controller.Memory_Data         1328      0.00%      0.00% (Unspecified)
board.cache_hierarchy.ruby_system.Directory_Controller.I.Fetch         1328      0.00%      0.00% (Unspecified)
board.cache_hierarchy.ruby_system.Directory_Controller.IM.Memory_Data         1328      0.00%      0.00% (Unspecified)
board.cache_hierarchy.ruby_system.L1Cache_Controller.Load |       12666      4.47%      4.47% |       16936      5.98%     10.46% |       16905      5.97%     16.43% |       16914      5.97%     22.40% |       16933      5.98%     28.38% |       16911      5.97%     34.35% |       16892      5.97%     40.32% |       16899      5.97%     46.29% |       16914      5.97%     52.26% |       16909      5.97%     58.23% |       16891      5.97%     64.20% |       16890      5.97%     70.16% |       16898      5.97%     76.13% |       16897      5.97%     82.10% |       16906      5.97%     88.07% |       16890      5.97%     94.04% |       16883      5.96%    100.00% (Unspecified)
board.cache_hierarchy.ruby_system.L1Cache_Controller.Load::total       283134                       (Unspecified)
board.cache_hierarchy.ruby_system.L1Cache_Controller.Ifetch |       21763      3.48%      3.48% |       37616      6.02%      9.50% |       37845      6.05%     15.55% |       37823      6.05%     21.60% |       37806      6.05%     27.65% |       37817      6.05%     33.70% |       37657      6.02%     39.72% |       37826      6.05%     45.77% |       37844      6.05%     51.83% |       37698      6.03%     57.86% |       37640      6.02%     63.88% |       37638      6.02%     69.90% |       37633      6.02%     75.92% |       37632      6.02%     81.94% |       37632      6.02%     87.96% |       37635      6.02%     93.98% |       37627      6.02%    100.00% (Unspecified)
board.cache_hierarchy.ruby_system.L1Cache_Controller.Ifetch::total       625132                       (Unspecified)
board.cache_hierarchy.ruby_system.L1Cache_Controller.Store |       22256      8.52%      8.52% |       15087      5.77%     14.29% |       15100      5.78%     20.07% |       15102      5.78%     25.84% |       15095      5.78%     31.62% |       15098      5.78%     37.40% |       14793      5.66%     43.06% |       15096      5.78%     48.83% |       15098      5.78%     54.61% |       15083      5.77%     60.38% |       14792      5.66%     66.04% |       14792      5.66%     71.70% |       14792      5.66%     77.36% |       14792      5.66%     83.02% |       14792      5.66%     88.68% |       14792      5.66%     94.34% |       14792      5.66%    100.00% (Unspecified)
board.cache_hierarchy.ruby_system.L1Cache_Controller.Store::total       261352                       (Unspecified)
board.cache_hierarchy.ruby_system.L1Cache_Controller.Inv |          83     26.86%     26.86% |          10      3.24%     30.10% |           9      2.91%     33.01% |          24      7.77%     40.78% |          21      6.80%     47.57% |          18      5.83%     53.40% |          15      4.85%     58.25% |          19      6.15%     64.40% |          19      6.15%     70.55% |          21      6.80%     77.35% |          14      4.53%     81.88% |          16      5.18%     87.06% |          11      3.56%     90.61% |          11      3.56%     94.17% |           9      2.91%     97.09% |           8      2.59%     99.68% |           1      0.32%    100.00% (Unspecified)
board.cache_hierarchy.ruby_system.L1Cache_Controller.Inv::total          309                       (Unspecified)
board.cache_hierarchy.ruby_system.L1Cache_Controller.L1_Replacement |         893      3.32%      3.32% |        1638      6.09%      9.40% |        1639      6.09%     15.49% |        1639      6.09%     21.59% |        1643      6.11%     27.69% |        1643      6.11%     33.80% |        1610      5.98%     39.78% |        1641      6.10%     45.88% |        1639      6.09%     51.97% |        1641      6.10%     58.06% |        1611      5.99%     64.05% |        1613      5.99%     70.04% |        1611      5.99%     76.03% |        1613      5.99%     82.02% |        1613      5.99%     88.02% |        1613      5.99%     94.01% |        1612      5.99%    100.00% (Unspecified)
board.cache_hierarchy.ruby_system.L1Cache_Controller.L1_Replacement::total        26912                       (Unspecified)
board.cache_hierarchy.ruby_system.L1Cache_Controller.Fwd_GETX |          40     20.83%     20.83% |          13      6.77%     27.60% |           8      4.17%     31.77% |           6      3.12%     34.90% |           4      2.08%     36.98% |           7      3.65%     40.62% |          14      7.29%     47.92% |           5      2.60%     50.52% |           5      2.60%     53.12% |          16      8.33%     61.46% |           3      1.56%     63.02% |          13      6.77%     69.79% |          14      7.29%     77.08% |          14      7.29%     84.38% |          14      7.29%     91.67% |          14      7.29%     98.96% |           2      1.04%    100.00% (Unspecified)
board.cache_hierarchy.ruby_system.L1Cache_Controller.Fwd_GETX::total          192                       (Unspecified)
board.cache_hierarchy.ruby_system.L1Cache_Controller.Fwd_GETS |         411     17.10%     17.10% |        1769     73.59%     90.68% |          51      2.12%     92.80% |          13      0.54%     93.34% |          12      0.50%     93.84% |          10      0.42%     94.26% |          15      0.62%     94.88% |          13      0.54%     95.42% |          14      0.58%     96.01% |          13      0.54%     96.55% |           8      0.33%     96.88% |          15      0.62%     97.50% |          12      0.50%     98.00% |          14      0.58%     98.59% |          13      0.54%     99.13% |          15      0.62%     99.75% |           6      0.25%    100.00% (Unspecified)
board.cache_hierarchy.ruby_system.L1Cache_Controller.Fwd_GETS::total         2404                       (Unspecified)
board.cache_hierarchy.ruby_system.L1Cache_Controller.Data |           0      0.00%      0.00% |           0      0.00%      0.00% |           5     21.74%     21.74% |           2      8.70%     30.43% |           2      8.70%     39.13% |           5     21.74%     60.87% |           1      4.35%     65.22% |           3     13.04%     78.26% |           4     17.39%     95.65% |           1      4.35%    100.00% |           0      0.00%    100.00% |           0      0.00%    100.00% |           0      0.00%    100.00% |           0      0.00%    100.00% |           0      0.00%    100.00% |           0      0.00%    100.00% |           0      0.00%    100.00% (Unspecified)
board.cache_hierarchy.ruby_system.L1Cache_Controller.Data::total           23                       (Unspecified)
board.cache_hierarchy.ruby_system.L1Cache_Controller.Data_Exclusive |          62      2.92%      2.92% |        1808     85.04%     87.96% |          54      2.54%     90.50% |          14      0.66%     91.16% |          14      0.66%     91.82% |          14      0.66%     92.47% |          15      0.71%     93.18% |          14      0.66%     93.84% |          13      0.61%     94.45% |          13      0.61%     95.06% |          15      0.71%     95.77% |          15      0.71%     96.47% |          15      0.71%     97.18% |          15      0.71%     97.88% |          17      0.80%     98.68% |          14      0.66%     99.34% |          14      0.66%    100.00% (Unspecified)
board.cache_hierarchy.ruby_system.L1Cache_Controller.Data_Exclusive::total         2126                       (Unspecified)
board.cache_hierarchy.ruby_system.L1Cache_Controller.DataS_fromL1 |          66      2.75%      2.75% |         278     11.56%     14.31% |        1767     73.50%     87.81% |          16      0.67%     88.48% |          15      0.62%     89.10% |          28      1.16%     90.27% |          34      1.41%     91.68% |          26      1.08%     92.76% |          27      1.12%     93.89% |          15      0.62%     94.51% |          24      1.00%     95.51% |          18      0.75%     96.26% |          17      0.71%     96.96% |          18      0.75%     97.71% |          19      0.79%     98.50% |          18      0.75%     99.25% |          18      0.75%    100.00% (Unspecified)
board.cache_hierarchy.ruby_system.L1Cache_Controller.DataS_fromL1::total         2404                       (Unspecified)
board.cache_hierarchy.ruby_system.L1Cache_Controller.Data_all_Acks |         797      2.37%      2.37% |         252      0.75%      3.12% |         538      1.60%      4.72% |        2341      6.96%     11.68% |        2345      6.98%     18.66% |        2325      6.92%     25.57% |        2248      6.69%     32.26% |        2326      6.92%     39.18% |        2323      6.91%     46.09% |        2327      6.92%     53.01% |        2258      6.72%     59.73% |        2262      6.73%     66.45% |        2255      6.71%     73.16% |        2256      6.71%     79.87% |        2254      6.70%     86.58% |        2256      6.71%     93.29% |        2257      6.71%    100.00% (Unspecified)
board.cache_hierarchy.ruby_system.L1Cache_Controller.Data_all_Acks::total        33620                       (Unspecified)
board.cache_hierarchy.ruby_system.L1Cache_Controller.Ack |          37     12.94%     12.94% |          10      3.50%     16.43% |          24      8.39%     24.83% |          11      3.85%     28.67% |           8      2.80%     31.47% |          19      6.64%     38.11% |          21      7.34%     45.45% |          14      4.90%     50.35% |          18      6.29%     56.64% |          16      5.59%     62.24% |          23      8.04%     70.28% |          18      6.29%     76.57% |          13      4.55%     81.12% |          13      4.55%     85.66% |          13      4.55%     90.21% |          15      5.24%     95.45% |          13      4.55%    100.00% (Unspecified)
board.cache_hierarchy.ruby_system.L1Cache_Controller.Ack::total          286                       (Unspecified)
board.cache_hierarchy.ruby_system.L1Cache_Controller.Ack_all |          33     14.16%     14.16% |          10      4.29%     18.45% |          16      6.87%     25.32% |           9      3.86%     29.18% |           8      3.43%     32.62% |          14      6.01%     38.63% |          14      6.01%     44.64% |          12      5.15%     49.79% |          14      6.01%     55.79% |          10      4.29%     60.09% |          13      5.58%     65.67% |          14      6.01%     71.67% |          13      5.58%     77.25% |          12      5.15%     82.40% |          13      5.58%     87.98% |          15      6.44%     94.42% |          13      5.58%    100.00% (Unspecified)
board.cache_hierarchy.ruby_system.L1Cache_Controller.Ack_all::total          233                       (Unspecified)
board.cache_hierarchy.ruby_system.L1Cache_Controller.WB_Ack |         365     58.31%     58.31% |          53      8.47%     66.77% |          14      2.24%     69.01% |          14      2.24%     71.25% |          14      2.24%     73.48% |          14      2.24%     75.72% |          14      2.24%     77.96% |          14      2.24%     80.19% |          13      2.08%     82.27% |          13      2.08%     84.35% |          14      2.24%     86.58% |          14      2.24%     88.82% |          14      2.24%     91.05% |          14      2.24%     93.29% |          14      2.24%     95.53% |          14      2.24%     97.76% |          14      2.24%    100.00% (Unspecified)
board.cache_hierarchy.ruby_system.L1Cache_Controller.WB_Ack::total          626                       (Unspecified)
board.cache_hierarchy.ruby_system.L1Cache_Controller.NP.Load |         149      0.44%      0.44% |        2089      6.21%      6.65% |        2091      6.21%     12.87% |        2090      6.21%     19.08% |        2094      6.22%     25.30% |        2093      6.22%     31.52% |        2094      6.22%     37.74% |        2091      6.21%     43.96% |        2090      6.21%     50.17% |        2091      6.21%     56.38% |        2095      6.23%     62.61% |        2097      6.23%     68.84% |        2095      6.23%     75.07% |        2097      6.23%     81.30% |        2099      6.24%     87.54% |        2097      6.23%     93.77% |        2096      6.23%    100.00% (Unspecified)
board.cache_hierarchy.ruby_system.L1Cache_Controller.NP.Load::total        33648                       (Unspecified)
board.cache_hierarchy.ruby_system.L1Cache_Controller.NP.Ifetch |         350     10.77%     10.77% |         188      5.78%     16.55% |         201      6.18%     22.73% |         199      6.12%     28.85% |         203      6.24%     35.10% |         202      6.21%     41.31% |         170      5.23%     46.54% |         200      6.15%     52.69% |         199      6.12%     58.81% |         193      5.94%     64.75% |         165      5.08%     69.82% |         165      5.08%     74.90% |         164      5.04%     79.94% |         162      4.98%     84.93% |         164      5.04%     89.97% |         162      4.98%     94.96% |         164      5.04%    100.00% (Unspecified)
board.cache_hierarchy.ruby_system.L1Cache_Controller.NP.Ifetch::total         3251                       (Unspecified)
board.cache_hierarchy.ruby_system.L1Cache_Controller.NP.Store |         392     35.60%     35.60% |          61      5.54%     41.14% |          60      5.45%     46.59% |          61      5.54%     52.13% |          61      5.54%     57.67% |          61      5.54%     63.22% |          28      2.54%     65.76% |          61      5.54%     71.30% |          61      5.54%     76.84% |          61      5.54%     82.38% |          28      2.54%     84.92% |          28      2.54%     87.47% |          28      2.54%     90.01% |          28      2.54%     92.55% |          26      2.36%     94.91% |          28      2.54%     97.46% |          28      2.54%    100.00% (Unspecified)
board.cache_hierarchy.ruby_system.L1Cache_Controller.NP.Store::total         1101                       (Unspecified)
board.cache_hierarchy.ruby_system.L1Cache_Controller.NP.Inv |          12    100.00%    100.00% |           0      0.00%    100.00% |           0      0.00%    100.00% |           0      0.00%    100.00% |           0      0.00%    100.00% |           0      0.00%    100.00% |           0      0.00%    100.00% |           0      0.00%    100.00% |           0      0.00%    100.00% |           0      0.00%    100.00% |           0      0.00%    100.00% |           0      0.00%    100.00% |           0      0.00%    100.00% |           0      0.00%    100.00% |           0      0.00%    100.00% |           0      0.00%    100.00% |           0      0.00%    100.00% (Unspecified)
board.cache_hierarchy.ruby_system.L1Cache_Controller.NP.Inv::total           12                       (Unspecified)
board.cache_hierarchy.ruby_system.L1Cache_Controller.I.Load |          28     26.92%     26.92% |           0      0.00%     26.92% |           4      3.85%     30.77% |          12     11.54%     42.31% |           9      8.65%     50.96% |           9      8.65%     59.62% |           4      3.85%     63.46% |           9      8.65%     72.12% |           9      8.65%     80.77% |           8      7.69%     88.46% |           8      7.69%     96.15% |           4      3.85%    100.00% |           0      0.00%    100.00% |           0      0.00%    100.00% |           0      0.00%    100.00% |           0      0.00%    100.00% |           0      0.00%    100.00% (Unspecified)
board.cache_hierarchy.ruby_system.L1Cache_Controller.I.Load::total          104                       (Unspecified)
board.cache_hierarchy.ruby_system.L1Cache_Controller.I.Store |           6     10.17%     10.17% |           0      0.00%     10.17% |           7     11.86%     22.03% |           8     13.56%     35.59% |           7     11.86%     47.46% |           7     11.86%     59.32% |           1      1.69%     61.02% |           6     10.17%     71.19% |           7     11.86%     83.05% |           3      5.08%     88.14% |           1      1.69%     89.83% |           1      1.69%     91.53% |           0      0.00%     91.53% |           2      3.39%     94.92% |           1      1.69%     96.61% |           1      1.69%     98.31% |           1      1.69%    100.00% (Unspecified)
board.cache_hierarchy.ruby_system.L1Cache_Controller.I.Store::total           59                       (Unspecified)
board.cache_hierarchy.ruby_system.L1Cache_Controller.I.L1_Replacement |          57     96.61%     96.61% |           0      0.00%     96.61% |           0      0.00%     96.61% |           0      0.00%     96.61% |           0      0.00%     96.61% |           1      1.69%     98.31% |           0      0.00%     98.31% |           0      0.00%     98.31% |           0      0.00%     98.31% |           1      1.69%    100.00% |           0      0.00%    100.00% |           0      0.00%    100.00% |           0      0.00%    100.00% |           0      0.00%    100.00% |           0      0.00%    100.00% |           0      0.00%    100.00% |           0      0.00%    100.00% (Unspecified)
board.cache_hierarchy.ruby_system.L1Cache_Controller.I.L1_Replacement::total           59                       (Unspecified)
board.cache_hierarchy.ruby_system.L1Cache_Controller.S.Load |         497     31.12%     31.12% |          45      2.82%     33.94% |          71      4.45%     38.38% |          69      4.32%     42.71% |          78      4.88%     47.59% |          63      3.94%     51.53% |          70      4.38%     55.92% |          58      3.63%     59.55% |          63      3.94%     63.49% |          65      4.07%     67.56% |          61      3.82%     71.38% |          68      4.26%     75.64% |          73      4.57%     80.21% |          77      4.82%     85.03% |          82      5.13%     90.17% |          77      4.82%     94.99% |          80      5.01%    100.00% (Unspecified)
board.cache_hierarchy.ruby_system.L1Cache_Controller.S.Load::total         1597                       (Unspecified)
board.cache_hierarchy.ruby_system.L1Cache_Controller.S.Ifetch |       21412      3.44%      3.44% |       37428      6.02%      9.46% |       37644      6.05%     15.51% |       37624      6.05%     21.56% |       37603      6.05%     27.61% |       37615      6.05%     33.66% |       37487      6.03%     39.69% |       37626      6.05%     45.74% |       37645      6.05%     51.79% |       37505      6.03%     57.82% |       37475      6.03%     63.85% |       37473      6.03%     69.87% |       37469      6.03%     75.90% |       37470      6.03%     81.93% |       37468      6.02%     87.95% |       37473      6.03%     93.98% |       37463      6.02%    100.00% (Unspecified)
board.cache_hierarchy.ruby_system.L1Cache_Controller.S.Ifetch::total       621880                       (Unspecified)
board.cache_hierarchy.ruby_system.L1Cache_Controller.S.Store |          33     15.00%     15.00% |          10      4.55%     19.55% |          12      5.45%     25.00% |          10      4.55%     29.55% |           8      3.64%     33.18% |           9      4.09%     37.27% |          14      6.36%     43.64% |          11      5.00%     48.64% |          11      5.00%     53.64% |           9      4.09%     57.73% |          13      5.91%     63.64% |          14      6.36%     70.00% |          13      5.91%     75.91% |          12      5.45%     81.36% |          13      5.91%     87.27% |          15      6.82%     94.09% |          13      5.91%    100.00% (Unspecified)
board.cache_hierarchy.ruby_system.L1Cache_Controller.S.Store::total          220                       (Unspecified)
board.cache_hierarchy.ruby_system.L1Cache_Controller.S.Inv |          71     25.45%     25.45% |          10      3.58%     29.03% |           8      2.87%     31.90% |          19      6.81%     38.71% |          17      6.09%     44.80% |          18      6.45%     51.25% |          14      5.02%     56.27% |          16      5.73%     62.01% |          17      6.09%     68.10% |          19      6.81%     74.91% |          14      5.02%     79.93% |          16      5.73%     85.66% |          11      3.94%     89.61% |          11      3.94%     93.55% |           9      3.23%     96.77% |           8      2.87%     99.64% |           1      0.36%    100.00% (Unspecified)
board.cache_hierarchy.ruby_system.L1Cache_Controller.S.Inv::total          279                       (Unspecified)
board.cache_hierarchy.ruby_system.L1Cache_Controller.S.L1_Replacement |         471      1.80%      1.80% |        1585      6.04%      7.84% |        1625      6.20%     14.04% |        1625      6.20%     20.23% |        1629      6.21%     26.44% |        1628      6.21%     32.65% |        1596      6.09%     38.73% |        1627      6.20%     44.94% |        1626      6.20%     51.14% |        1627      6.20%     57.34% |        1597      6.09%     63.43% |        1599      6.10%     69.53% |        1597      6.09%     75.62% |        1599      6.10%     81.71% |        1599      6.10%     87.81% |        1599      6.10%     93.91% |        1598      6.09%    100.00% (Unspecified)
board.cache_hierarchy.ruby_system.L1Cache_Controller.S.L1_Replacement::total        26227                       (Unspecified)
board.cache_hierarchy.ruby_system.L1Cache_Controller.E.Load |        1505     89.85%     89.85% |          25      1.49%     91.34% |          10      0.60%     91.94% |          10      0.60%     92.54% |          10      0.60%     93.13% |           9      0.54%     93.67% |          13      0.78%     94.45% |           9      0.54%     94.99% |          10      0.60%     95.58% |           5      0.30%     95.88% |          12      0.72%     96.60% |          11      0.66%     97.25% |           9      0.54%     97.79% |           8      0.48%     98.27% |           9      0.54%     98.81% |          11      0.66%     99.46% |           9      0.54%    100.00% (Unspecified)
board.cache_hierarchy.ruby_system.L1Cache_Controller.E.Load::total         1675                       (Unspecified)
board.cache_hierarchy.ruby_system.L1Cache_Controller.E.Store |          23     14.20%     14.20% |           8      4.94%     19.14% |           9      5.56%     24.69% |           9      5.56%     30.25% |           9      5.56%     35.80% |           9      5.56%     41.36% |           9      5.56%     46.91% |           9      5.56%     52.47% |           8      4.94%     57.41% |           8      4.94%     62.35% |           9      5.56%     67.90% |           9      5.56%     73.46% |           9      5.56%     79.01% |           8      4.94%     83.95% |          10      6.17%     90.12% |           8      4.94%     95.06% |           8      4.94%    100.00% (Unspecified)
board.cache_hierarchy.ruby_system.L1Cache_Controller.E.Store::total          162                       (Unspecified)
board.cache_hierarchy.ruby_system.L1Cache_Controller.E.L1_Replacement |          14     20.29%     20.29% |          40     57.97%     78.26% |           1      1.45%     79.71% |           1      1.45%     81.16% |           1      1.45%     82.61% |           1      1.45%     84.06% |           1      1.45%     85.51% |           1      1.45%     86.96% |           1      1.45%     88.41% |           1      1.45%     89.86% |           1      1.45%     91.30% |           1      1.45%     92.75% |           1      1.45%     94.20% |           1      1.45%     95.65% |           1      1.45%     97.10% |           1      1.45%     98.55% |           1      1.45%    100.00% (Unspecified)
board.cache_hierarchy.ruby_system.L1Cache_Controller.E.L1_Replacement::total           69                       (Unspecified)
board.cache_hierarchy.ruby_system.L1Cache_Controller.E.Fwd_GETS |           9      0.49%      0.49% |        1757     96.17%     96.66% |          41      2.24%     98.91% |           1      0.05%     98.96% |           1      0.05%     99.01% |           1      0.05%     99.07% |           2      0.11%     99.18% |           1      0.05%     99.23% |           1      0.05%     99.29% |           1      0.05%     99.34% |           1      0.05%     99.40% |           1      0.05%     99.45% |           1      0.05%     99.51% |           3      0.16%     99.67% |           2      0.11%     99.78% |           2      0.11%     99.89% |           2      0.11%    100.00% (Unspecified)
board.cache_hierarchy.ruby_system.L1Cache_Controller.E.Fwd_GETS::total         1827                       (Unspecified)
board.cache_hierarchy.ruby_system.L1Cache_Controller.M.Load |       10487      4.26%      4.26% |       14777      6.00%     10.27% |       14729      5.98%     16.25% |       14733      5.99%     22.24% |       14742      5.99%     28.23% |       14737      5.99%     34.21% |       14711      5.98%     40.19% |       14732      5.99%     46.18% |       14742      5.99%     52.17% |       14740      5.99%     58.16% |       14715      5.98%     64.14% |       14710      5.98%     70.11% |       14721      5.98%     76.09% |       14715      5.98%     82.07% |       14716      5.98%     88.05% |       14705      5.97%     94.03% |       14698      5.97%    100.00% (Unspecified)
board.cache_hierarchy.ruby_system.L1Cache_Controller.M.Load::total       246110                       (Unspecified)
board.cache_hierarchy.ruby_system.L1Cache_Controller.M.Store |       21802      8.39%      8.39% |       15008      5.78%     14.17% |       15012      5.78%     19.95% |       15014      5.78%     25.72% |       15010      5.78%     31.50% |       15012      5.78%     37.28% |       14741      5.67%     42.95% |       15009      5.78%     48.73% |       15011      5.78%     54.51% |       15002      5.77%     60.28% |       14741      5.67%     65.96% |       14740      5.67%     71.63% |       14742      5.67%     77.30% |       14742      5.67%     82.98% |       14742      5.67%     88.65% |       14740      5.67%     94.33% |       14742      5.67%    100.00% (Unspecified)
board.cache_hierarchy.ruby_system.L1Cache_Controller.M.Store::total       259810                       (Unspecified)
board.cache_hierarchy.ruby_system.L1Cache_Controller.M.L1_Replacement |         351     63.02%     63.02% |          13      2.33%     65.35% |          13      2.33%     67.68% |          13      2.33%     70.02% |          13      2.33%     72.35% |          13      2.33%     74.69% |          13      2.33%     77.02% |          13      2.33%     79.35% |          12      2.15%     81.51% |          12      2.15%     83.66% |          13      2.33%     86.00% |          13      2.33%     88.33% |          13      2.33%     90.66% |          13      2.33%     93.00% |          13      2.33%     95.33% |          13      2.33%     97.67% |          13      2.33%    100.00% (Unspecified)
board.cache_hierarchy.ruby_system.L1Cache_Controller.M.L1_Replacement::total          557                       (Unspecified)
board.cache_hierarchy.ruby_system.L1Cache_Controller.M.Fwd_GETX |          40     20.83%     20.83% |          13      6.77%     27.60% |           8      4.17%     31.77% |           6      3.12%     34.90% |           4      2.08%     36.98% |           7      3.65%     40.62% |          14      7.29%     47.92% |           5      2.60%     50.52% |           5      2.60%     53.12% |          16      8.33%     61.46% |           3      1.56%     63.02% |          13      6.77%     69.79% |          14      7.29%     77.08% |          14      7.29%     84.38% |          14      7.29%     91.67% |          14      7.29%     98.96% |           2      1.04%    100.00% (Unspecified)
board.cache_hierarchy.ruby_system.L1Cache_Controller.M.Fwd_GETX::total          192                       (Unspecified)
board.cache_hierarchy.ruby_system.L1Cache_Controller.M.Fwd_GETS |         402     69.67%     69.67% |          12      2.08%     71.75% |          10      1.73%     73.48% |          12      2.08%     75.56% |          11      1.91%     77.47% |           9      1.56%     79.03% |          13      2.25%     81.28% |          12      2.08%     83.36% |          13      2.25%     85.62% |          12      2.08%     87.69% |           7      1.21%     88.91% |          14      2.43%     91.33% |          11      1.91%     93.24% |          11      1.91%     95.15% |          11      1.91%     97.05% |          13      2.25%     99.31% |           4      0.69%    100.00% (Unspecified)
board.cache_hierarchy.ruby_system.L1Cache_Controller.M.Fwd_GETS::total          577                       (Unspecified)
board.cache_hierarchy.ruby_system.L1Cache_Controller.IS.Inv |           0      0.00%      0.00% |           0      0.00%      0.00% |           0      0.00%      0.00% |           2     25.00%     25.00% |           2     25.00%     50.00% |           0      0.00%     50.00% |           0      0.00%     50.00% |           1     12.50%     62.50% |           1     12.50%     75.00% |           2     25.00%    100.00% |           0      0.00%    100.00% |           0      0.00%    100.00% |           0      0.00%    100.00% |           0      0.00%    100.00% |           0      0.00%    100.00% |           0      0.00%    100.00% |           0      0.00%    100.00% (Unspecified)
board.cache_hierarchy.ruby_system.L1Cache_Controller.IS.Inv::total            8                       (Unspecified)
board.cache_hierarchy.ruby_system.L1Cache_Controller.IS.Data_Exclusive |          62      2.92%      2.92% |        1808     85.04%     87.96% |          54      2.54%     90.50% |          14      0.66%     91.16% |          14      0.66%     91.82% |          14      0.66%     92.47% |          15      0.71%     93.18% |          14      0.66%     93.84% |          13      0.61%     94.45% |          13      0.61%     95.06% |          15      0.71%     95.77% |          15      0.71%     96.47% |          15      0.71%     97.18% |          15      0.71%     97.88% |          17      0.80%     98.68% |          14      0.66%     99.34% |          14      0.66%    100.00% (Unspecified)
board.cache_hierarchy.ruby_system.L1Cache_Controller.IS.Data_Exclusive::total         2126                       (Unspecified)
board.cache_hierarchy.ruby_system.L1Cache_Controller.IS.DataS_fromL1 |          66      2.75%      2.75% |         278     11.56%     14.31% |        1767     73.50%     87.81% |          16      0.67%     88.48% |          15      0.62%     89.10% |          28      1.16%     90.27% |          34      1.41%     91.68% |          26      1.08%     92.76% |          27      1.12%     93.89% |          15      0.62%     94.51% |          24      1.00%     95.51% |          18      0.75%     96.26% |          17      0.71%     96.96% |          18      0.75%     97.71% |          19      0.79%     98.50% |          18      0.75%     99.25% |          18      0.75%    100.00% (Unspecified)
board.cache_hierarchy.ruby_system.L1Cache_Controller.IS.DataS_fromL1::total         2404                       (Unspecified)
board.cache_hierarchy.ruby_system.L1Cache_Controller.IS.Data_all_Acks |         399      1.23%      1.23% |         191      0.59%      1.82% |         475      1.46%      3.28% |        2269      6.99%     10.27% |        2275      7.01%     17.28% |        2262      6.97%     24.24% |        2219      6.84%     31.08% |        2259      6.96%     38.04% |        2257      6.95%     44.99% |        2262      6.97%     51.96% |        2229      6.87%     58.82% |        2233      6.88%     65.70% |        2227      6.86%     72.56% |        2226      6.86%     79.42% |        2227      6.86%     86.28% |        2227      6.86%     93.14% |        2228      6.86%    100.00% (Unspecified)
board.cache_hierarchy.ruby_system.L1Cache_Controller.IS.Data_all_Acks::total        32465                       (Unspecified)
board.cache_hierarchy.ruby_system.L1Cache_Controller.IM.Data |           0      0.00%      0.00% |           0      0.00%      0.00% |           5     21.74%     21.74% |           2      8.70%     30.43% |           2      8.70%     39.13% |           5     21.74%     60.87% |           1      4.35%     65.22% |           3     13.04%     78.26% |           4     17.39%     95.65% |           1      4.35%    100.00% |           0      0.00%    100.00% |           0      0.00%    100.00% |           0      0.00%    100.00% |           0      0.00%    100.00% |           0      0.00%    100.00% |           0      0.00%    100.00% |           0      0.00%    100.00% (Unspecified)
board.cache_hierarchy.ruby_system.L1Cache_Controller.IM.Data::total           23                       (Unspecified)
board.cache_hierarchy.ruby_system.L1Cache_Controller.IM.Data_all_Acks |         398     34.70%     34.70% |          61      5.32%     40.02% |          63      5.49%     45.51% |          70      6.10%     51.61% |          68      5.93%     57.54% |          63      5.49%     63.03% |          29      2.53%     65.56% |          66      5.75%     71.32% |          65      5.67%     76.98% |          63      5.49%     82.48% |          29      2.53%     85.00% |          29      2.53%     87.53% |          28      2.44%     89.97% |          30      2.62%     92.59% |          27      2.35%     94.94% |          29      2.53%     97.47% |          29      2.53%    100.00% (Unspecified)
board.cache_hierarchy.ruby_system.L1Cache_Controller.IM.Data_all_Acks::total         1147                       (Unspecified)
board.cache_hierarchy.ruby_system.L1Cache_Controller.SM.Inv |           0      0.00%      0.00% |           0      0.00%      0.00% |           1     10.00%     10.00% |           3     30.00%     40.00% |           2     20.00%     60.00% |           0      0.00%     60.00% |           1     10.00%     70.00% |           2     20.00%     90.00% |           1     10.00%    100.00% |           0      0.00%    100.00% |           0      0.00%    100.00% |           0      0.00%    100.00% |           0      0.00%    100.00% |           0      0.00%    100.00% |           0      0.00%    100.00% |           0      0.00%    100.00% |           0      0.00%    100.00% (Unspecified)
board.cache_hierarchy.ruby_system.L1Cache_Controller.SM.Inv::total           10                       (Unspecified)
board.cache_hierarchy.ruby_system.L1Cache_Controller.SM.Ack |          37     12.94%     12.94% |          10      3.50%     16.43% |          24      8.39%     24.83% |          11      3.85%     28.67% |           8      2.80%     31.47% |          19      6.64%     38.11% |          21      7.34%     45.45% |          14      4.90%     50.35% |          18      6.29%     56.64% |          16      5.59%     62.24% |          23      8.04%     70.28% |          18      6.29%     76.57% |          13      4.55%     81.12% |          13      4.55%     85.66% |          13      4.55%     90.21% |          15      5.24%     95.45% |          13      4.55%    100.00% (Unspecified)
board.cache_hierarchy.ruby_system.L1Cache_Controller.SM.Ack::total          286                       (Unspecified)
board.cache_hierarchy.ruby_system.L1Cache_Controller.SM.Ack_all |          33     14.16%     14.16% |          10      4.29%     18.45% |          16      6.87%     25.32% |           9      3.86%     29.18% |           8      3.43%     32.62% |          14      6.01%     38.63% |          14      6.01%     44.64% |          12      5.15%     49.79% |          14      6.01%     55.79% |          10      4.29%     60.09% |          13      5.58%     65.67% |          14      6.01%     71.67% |          13      5.58%     77.25% |          12      5.15%     82.40% |          13      5.58%     87.98% |          15      6.44%     94.42% |          13      5.58%    100.00% (Unspecified)
board.cache_hierarchy.ruby_system.L1Cache_Controller.SM.Ack_all::total          233                       (Unspecified)
board.cache_hierarchy.ruby_system.L1Cache_Controller.IS_I.Data_all_Acks |           0      0.00%      0.00% |           0      0.00%      0.00% |           0      0.00%      0.00% |           2     25.00%     25.00% |           2     25.00%     50.00% |           0      0.00%     50.00% |           0      0.00%     50.00% |           1     12.50%     62.50% |           1     12.50%     75.00% |           2     25.00%    100.00% |           0      0.00%    100.00% |           0      0.00%    100.00% |           0      0.00%    100.00% |           0      0.00%    100.00% |           0      0.00%    100.00% |           0      0.00%    100.00% |           0      0.00%    100.00% (Unspecified)
board.cache_hierarchy.ruby_system.L1Cache_Controller.IS_I.Data_all_Acks::total            8                       (Unspecified)
board.cache_hierarchy.ruby_system.L1Cache_Controller.M_I.Ifetch |           1    100.00%    100.00% |           0      0.00%    100.00% |           0      0.00%    100.00% |           0      0.00%    100.00% |           0      0.00%    100.00% |           0      0.00%    100.00% |           0      0.00%    100.00% |           0      0.00%    100.00% |           0      0.00%    100.00% |           0      0.00%    100.00% |           0      0.00%    100.00% |           0      0.00%    100.00% |           0      0.00%    100.00% |           0      0.00%    100.00% |           0      0.00%    100.00% |           0      0.00%    100.00% |           0      0.00%    100.00% (Unspecified)
board.cache_hierarchy.ruby_system.L1Cache_Controller.M_I.Ifetch::total            1                       (Unspecified)
board.cache_hierarchy.ruby_system.L1Cache_Controller.M_I.WB_Ack |         365     58.31%     58.31% |          53      8.47%     66.77% |          14      2.24%     69.01% |          14      2.24%     71.25% |          14      2.24%     73.48% |          14      2.24%     75.72% |          14      2.24%     77.96% |          14      2.24%     80.19% |          13      2.08%     82.27% |          13      2.08%     84.35% |          14      2.24%     86.58% |          14      2.24%     88.82% |          14      2.24%     91.05% |          14      2.24%     93.29% |          14      2.24%     95.53% |          14      2.24%     97.76% |          14      2.24%    100.00% (Unspecified)
board.cache_hierarchy.ruby_system.L1Cache_Controller.M_I.WB_Ack::total          626                       (Unspecified)
board.cache_hierarchy.ruby_system.L2Cache_Controller.L1_GET_INSTR |         232      7.14%      7.14% |         156      4.80%     11.93% |         161      4.95%     16.89% |         186      5.72%     22.61% |         202      6.21%     28.82% |         230      7.07%     35.90% |         249      7.66%     43.56% |         166      5.11%     48.66% |         182      5.60%     54.26% |         215      6.61%     60.87% |         198      6.09%     66.96% |         194      5.97%     72.93% |         203      6.24%     79.18% |         204      6.27%     85.45% |         231      7.11%     92.56% |         242      7.44%    100.00% (Unspecified)
board.cache_hierarchy.ruby_system.L2Cache_Controller.L1_GET_INSTR::total         3251                       (Unspecified)
board.cache_hierarchy.ruby_system.L2Cache_Controller.L1_GETS |        2228      5.88%      5.88% |        2157      5.69%     11.56% |        2342      6.18%     17.74% |        2367      6.24%     23.98% |        2397      6.32%     30.31% |        2420      6.38%     36.69% |        2415      6.37%     43.06% |        2380      6.28%     49.33% |        2387      6.30%     55.63% |        2418      6.38%     62.01% |        2530      6.67%     68.68% |        2336      6.16%     74.84% |        2396      6.32%     81.16% |        2400      6.33%     87.49% |        2389      6.30%     93.79% |        2355      6.21%    100.00% (Unspecified)
board.cache_hierarchy.ruby_system.L2Cache_Controller.L1_GETS::total        37917                       (Unspecified)
board.cache_hierarchy.ruby_system.L2Cache_Controller.L1_GETX |          55      4.42%      4.42% |          62      4.99%      9.41% |          65      5.23%     14.64% |          66      5.31%     19.95% |         107      8.61%     28.56% |         123      9.90%     38.46% |          80      6.44%     44.89% |          89      7.16%     52.05% |          89      7.16%     59.21% |          56      4.51%     63.72% |         173     13.92%     77.63% |          40      3.22%     80.85% |          73      5.87%     86.73% |          72      5.79%     92.52% |          54      4.34%     96.86% |          39      3.14%    100.00% (Unspecified)
board.cache_hierarchy.ruby_system.L2Cache_Controller.L1_GETX::total         1243                       (Unspecified)
board.cache_hierarchy.ruby_system.L2Cache_Controller.L1_UPGRADE |           1      0.44%      0.44% |          57     25.22%     25.66% |          21      9.29%     34.96% |          10      4.42%     39.38% |           9      3.98%     43.36% |          32     14.16%     57.52% |           8      3.54%     61.06% |           5      2.21%     63.27% |           2      0.88%     64.16% |           2      0.88%     65.04% |          47     20.80%     85.84% |           0      0.00%     85.84% |          10      4.42%     90.27% |           3      1.33%     91.59% |          18      7.96%     99.56% |           1      0.44%    100.00% (Unspecified)
board.cache_hierarchy.ruby_system.L2Cache_Controller.L1_UPGRADE::total          226                       (Unspecified)
board.cache_hierarchy.ruby_system.L2Cache_Controller.L1_PUTX |          35      5.59%      5.59% |          57      9.11%     14.70% |          32      5.11%     19.81% |          47      7.51%     27.32% |          62      9.90%     37.22% |          63     10.06%     47.28% |          46      7.35%     54.63% |          46      7.35%     61.98% |          48      7.67%     69.65% |          30      4.79%     74.44% |          30      4.79%     79.23% |          11      1.76%     80.99% |          29      4.63%     85.62% |          39      6.23%     91.85% |          30      4.79%     96.65% |          21      3.35%    100.00% (Unspecified)
board.cache_hierarchy.ruby_system.L2Cache_Controller.L1_PUTX::total          626                       (Unspecified)
board.cache_hierarchy.ruby_system.L2Cache_Controller.Mem_Data |          71      5.35%      5.35% |          81      6.10%     11.45% |          89      6.70%     18.15% |          90      6.78%     24.92% |         105      7.91%     32.83% |         107      8.06%     40.89% |          93      7.00%     47.89% |          84      6.33%     54.22% |          82      6.17%     60.39% |          85      6.40%     66.79% |          67      5.05%     71.84% |          55      4.14%     75.98% |          75      5.65%     81.63% |          87      6.55%     88.18% |          78      5.87%     94.05% |          79      5.95%    100.00% (Unspecified)
board.cache_hierarchy.ruby_system.L2Cache_Controller.Mem_Data::total         1328                       (Unspecified)
board.cache_hierarchy.ruby_system.L2Cache_Controller.WB_Data |          24      4.16%      4.16% |          79     13.69%     17.85% |          55      9.53%     27.38% |          28      4.85%     32.24% |          29      5.03%     37.26% |          58     10.05%     47.31% |          24      4.16%     51.47% |          22      3.81%     55.29% |          20      3.47%     58.75% |          40      6.93%     65.68% |          71     12.31%     77.99% |          19      3.29%     81.28% |          24      4.16%     85.44% |          23      3.99%     89.43% |          36      6.24%     95.67% |          25      4.33%    100.00% (Unspecified)
board.cache_hierarchy.ruby_system.L2Cache_Controller.WB_Data::total          577                       (Unspecified)
board.cache_hierarchy.ruby_system.L2Cache_Controller.WB_Data_clean |         107      5.86%      5.86% |         114      6.24%     12.10% |         115      6.29%     18.39% |         130      7.12%     25.51% |         113      6.19%     31.69% |         118      6.46%     38.15% |         116      6.35%     44.50% |         113      6.19%     50.68% |         112      6.13%     56.81% |         112      6.13%     62.94% |         113      6.19%     69.13% |         110      6.02%     75.15% |         116      6.35%     81.50% |         116      6.35%     87.85% |         114      6.24%     94.09% |         108      5.91%    100.00% (Unspecified)
board.cache_hierarchy.ruby_system.L2Cache_Controller.WB_Data_clean::total         1827                       (Unspecified)
board.cache_hierarchy.ruby_system.L2Cache_Controller.Unblock |         131      5.45%      5.45% |         193      8.03%     13.48% |         170      7.07%     20.55% |         158      6.57%     27.12% |         142      5.91%     33.03% |         176      7.32%     40.35% |         140      5.82%     46.17% |         135      5.62%     51.79% |         132      5.49%     57.28% |         152      6.32%     63.60% |         184      7.65%     71.26% |         129      5.37%     76.62% |         140      5.82%     82.45% |         139      5.78%     88.23% |         150      6.24%     94.47% |         133      5.53%    100.00% (Unspecified)
board.cache_hierarchy.ruby_system.L2Cache_Controller.Unblock::total         2404                       (Unspecified)
board.cache_hierarchy.ruby_system.L2Cache_Controller.Exclusive_Unblock |         192      5.48%      5.48% |         265      7.56%     13.03% |         218      6.22%     19.25% |         221      6.30%     25.56% |         265      7.56%     33.11% |         293      8.36%     41.47% |         228      6.50%     47.97% |         225      6.42%     54.39% |         224      6.39%     60.78% |         188      5.36%     66.14% |         252      7.19%     73.33% |         154      4.39%     77.72% |         204      5.82%     83.54% |         195      5.56%     89.10% |         204      5.82%     94.92% |         178      5.08%    100.00% (Unspecified)
board.cache_hierarchy.ruby_system.L2Cache_Controller.Exclusive_Unblock::total         3506                       (Unspecified)
board.cache_hierarchy.ruby_system.L2Cache_Controller.NP.L1_GET_INSTR |          26      6.75%      6.75% |          25      6.49%     13.25% |          26      6.75%     20.00% |          27      7.01%     27.01% |          26      6.75%     33.77% |          27      7.01%     40.78% |          27      7.01%     47.79% |          21      5.45%     53.25% |          18      4.68%     57.92% |          21      5.45%     63.38% |          20      5.19%     68.57% |          22      5.71%     74.29% |          26      6.75%     81.04% |          24      6.23%     87.27% |          24      6.23%     93.51% |          25      6.49%    100.00% (Unspecified)
board.cache_hierarchy.ruby_system.L2Cache_Controller.NP.L1_GET_INSTR::total          385                       (Unspecified)
board.cache_hierarchy.ruby_system.L2Cache_Controller.NP.L1_GETS |           0      0.00%      0.00% |           2      3.08%      3.08% |           0      0.00%      3.08% |           0      0.00%      3.08% |          16     24.62%     27.69% |           1      1.54%     29.23% |           4      6.15%     35.38% |           0      0.00%     35.38% |           1      1.54%     36.92% |          18     27.69%     64.62% |           1      1.54%     66.15% |           2      3.08%     69.23% |           1      1.54%     70.77% |           0      0.00%     70.77% |           2      3.08%     73.85% |          17     26.15%    100.00% (Unspecified)
board.cache_hierarchy.ruby_system.L2Cache_Controller.NP.L1_GETS::total           65                       (Unspecified)
board.cache_hierarchy.ruby_system.L2Cache_Controller.NP.L1_GETX |          45      5.13%      5.13% |          54      6.15%     11.28% |          63      7.18%     18.45% |          63      7.18%     25.63% |          63      7.18%     32.80% |          79      9.00%     41.80% |          62      7.06%     48.86% |          63      7.18%     56.04% |          63      7.18%     63.21% |          46      5.24%     68.45% |          46      5.24%     73.69% |          31      3.53%     77.22% |          48      5.47%     82.69% |          63      7.18%     89.86% |          52      5.92%     95.79% |          37      4.21%    100.00% (Unspecified)
board.cache_hierarchy.ruby_system.L2Cache_Controller.NP.L1_GETX::total          878                       (Unspecified)
board.cache_hierarchy.ruby_system.L2Cache_Controller.SS.L1_GET_INSTR |         205      7.19%      7.19% |         131      4.59%     11.78% |         135      4.73%     16.51% |         159      5.58%     22.09% |         176      6.17%     28.26% |         203      7.12%     35.38% |         221      7.75%     43.13% |         139      4.87%     48.00% |         164      5.75%     53.75% |         189      6.63%     60.38% |         178      6.24%     66.62% |         172      6.03%     72.65% |         177      6.21%     78.86% |         180      6.31%     85.17% |         206      7.22%     92.39% |         217      7.61%    100.00% (Unspecified)
board.cache_hierarchy.ruby_system.L2Cache_Controller.SS.L1_GET_INSTR::total         2852                       (Unspecified)
board.cache_hierarchy.ruby_system.L2Cache_Controller.SS.L1_GETS |        1817      6.22%      6.22% |        1814      6.21%     12.43% |        1831      6.27%     18.69% |        1836      6.28%     24.98% |        1830      6.26%     31.24% |        1806      6.18%     37.42% |        1834      6.28%     43.70% |        1812      6.20%     49.90% |        1819      6.23%     56.12% |        1847      6.32%     62.44% |        1864      6.38%     68.82% |        1810      6.19%     75.02% |        1821      6.23%     81.25% |        1822      6.24%     87.48% |        1826      6.25%     93.73% |        1831      6.27%    100.00% (Unspecified)
board.cache_hierarchy.ruby_system.L2Cache_Controller.SS.L1_GETS::total        29220                       (Unspecified)
board.cache_hierarchy.ruby_system.L2Cache_Controller.SS.L1_GETX |           0      0.00%      0.00% |           0      0.00%      0.00% |           0      0.00%      0.00% |           0      0.00%      0.00% |           2      8.70%      8.70% |           0      0.00%      8.70% |           0      0.00%      8.70% |           0      0.00%      8.70% |           0      0.00%      8.70% |           0      0.00%      8.70% |          21     91.30%    100.00% |           0      0.00%    100.00% |           0      0.00%    100.00% |           0      0.00%    100.00% |           0      0.00%    100.00% |           0      0.00%    100.00% (Unspecified)
board.cache_hierarchy.ruby_system.L2Cache_Controller.SS.L1_GETX::total           23                       (Unspecified)
board.cache_hierarchy.ruby_system.L2Cache_Controller.SS.L1_UPGRADE |           1      0.48%      0.48% |          57     27.14%     27.62% |          21     10.00%     37.62% |          10      4.76%     42.38% |           9      4.29%     46.67% |          31     14.76%     61.43% |           8      3.81%     65.24% |           5      2.38%     67.62% |           2      0.95%     68.57% |           2      0.95%     69.52% |          32     15.24%     84.76% |           0      0.00%     84.76% |          10      4.76%     89.52% |           3      1.43%     90.95% |          18      8.57%     99.52% |           1      0.48%    100.00% (Unspecified)
board.cache_hierarchy.ruby_system.L2Cache_Controller.SS.L1_UPGRADE::total          210                       (Unspecified)
board.cache_hierarchy.ruby_system.L2Cache_Controller.M.L1_GET_INSTR |           0      0.00%      0.00% |           0      0.00%      0.00% |           0      0.00%      0.00% |           0      0.00%      0.00% |           0      0.00%      0.00% |           0      0.00%      0.00% |           0      0.00%      0.00% |           0      0.00%      0.00% |           0      0.00%      0.00% |           0      0.00%      0.00% |           0      0.00%      0.00% |           0      0.00%      0.00% |           0      0.00%      0.00% |           0      0.00%      0.00% |           1    100.00%    100.00% |           0      0.00%    100.00% (Unspecified)
board.cache_hierarchy.ruby_system.L2Cache_Controller.M.L1_GET_INSTR::total            1                       (Unspecified)
board.cache_hierarchy.ruby_system.L2Cache_Controller.M.L1_GETS |         136      6.60%      6.60% |         144      6.98%     13.58% |         132      6.40%     19.98% |         145      7.03%     27.01% |         134      6.50%     33.51% |         139      6.74%     40.25% |         136      6.60%     46.85% |         131      6.35%     53.20% |         133      6.45%     59.65% |         112      5.43%     65.08% |         117      5.67%     70.76% |         112      5.43%     76.19% |         120      5.82%     82.01% |         120      5.82%     87.83% |         130      6.30%     94.13% |         121      5.87%    100.00% (Unspecified)
board.cache_hierarchy.ruby_system.L2Cache_Controller.M.L1_GETS::total         2062                       (Unspecified)
board.cache_hierarchy.ruby_system.L2Cache_Controller.M.L1_GETX |           2      2.60%      2.60% |           2      2.60%      5.19% |           2      2.60%      7.79% |           3      3.90%     11.69% |          21     27.27%     38.96% |          17     22.08%     61.04% |           2      2.60%     63.64% |           2      2.60%     66.23% |           2      2.60%     68.83% |           2      2.60%     71.43% |           2      2.60%     74.03% |           1      1.30%     75.32% |          14     18.18%     93.51% |           1      1.30%     94.81% |           2      2.60%     97.40% |           2      2.60%    100.00% (Unspecified)
board.cache_hierarchy.ruby_system.L2Cache_Controller.M.L1_GETX::total           77                       (Unspecified)
board.cache_hierarchy.ruby_system.L2Cache_Controller.MT.L1_GETS |         131      5.45%      5.45% |         193      8.03%     13.48% |         170      7.07%     20.55% |         158      6.57%     27.12% |         142      5.91%     33.03% |         176      7.32%     40.35% |         140      5.82%     46.17% |         135      5.62%     51.79% |         132      5.49%     57.28% |         152      6.32%     63.60% |         184      7.65%     71.26% |         129      5.37%     76.62% |         140      5.82%     82.45% |         139      5.78%     88.23% |         150      6.24%     94.47% |         133      5.53%    100.00% (Unspecified)
board.cache_hierarchy.ruby_system.L2Cache_Controller.MT.L1_GETS::total         2404                       (Unspecified)
board.cache_hierarchy.ruby_system.L2Cache_Controller.MT.L1_GETX |           8      4.17%      4.17% |           6      3.12%      7.29% |           0      0.00%      7.29% |           0      0.00%      7.29% |          20     10.42%     17.71% |          26     13.54%     31.25% |          16      8.33%     39.58% |          24     12.50%     52.08% |          24     12.50%     64.58% |           8      4.17%     68.75% |          33     17.19%     85.94% |           8      4.17%     90.10% |          11      5.73%     95.83% |           8      4.17%    100.00% |           0      0.00%    100.00% |           0      0.00%    100.00% (Unspecified)
board.cache_hierarchy.ruby_system.L2Cache_Controller.MT.L1_GETX::total          192                       (Unspecified)
board.cache_hierarchy.ruby_system.L2Cache_Controller.MT.L1_PUTX |          35      5.59%      5.59% |          57      9.11%     14.70% |          32      5.11%     19.81% |          47      7.51%     27.32% |          62      9.90%     37.22% |          63     10.06%     47.28% |          46      7.35%     54.63% |          46      7.35%     61.98% |          48      7.67%     69.65% |          30      4.79%     74.44% |          30      4.79%     79.23% |          11      1.76%     80.99% |          29      4.63%     85.62% |          39      6.23%     91.85% |          30      4.79%     96.65% |          21      3.35%    100.00% (Unspecified)
board.cache_hierarchy.ruby_system.L2Cache_Controller.MT.L1_PUTX::total          626                       (Unspecified)
board.cache_hierarchy.ruby_system.L2Cache_Controller.ISS.L1_GETS |           0      0.00%      0.00% |           0      0.00%      0.00% |           0      0.00%      0.00% |           0      0.00%      0.00% |           0      0.00%      0.00% |           0      0.00%      0.00% |           0      0.00%      0.00% |           0      0.00%      0.00% |           1    100.00%    100.00% |           0      0.00%    100.00% |           0      0.00%    100.00% |           0      0.00%    100.00% |           0      0.00%    100.00% |           0      0.00%    100.00% |           0      0.00%    100.00% |           0      0.00%    100.00% (Unspecified)
board.cache_hierarchy.ruby_system.L2Cache_Controller.ISS.L1_GETS::total            1                       (Unspecified)
board.cache_hierarchy.ruby_system.L2Cache_Controller.ISS.Mem_Data |           0      0.00%      0.00% |           2      3.12%      3.12% |           0      0.00%      3.12% |           0      0.00%      3.12% |          16     25.00%     28.12% |           1      1.56%     29.69% |           4      6.25%     35.94% |           0      0.00%     35.94% |           0      0.00%     35.94% |          18     28.12%     64.06% |           1      1.56%     65.62% |           2      3.12%     68.75% |           1      1.56%     70.31% |           0      0.00%     70.31% |           2      3.12%     73.44% |          17     26.56%    100.00% (Unspecified)
board.cache_hierarchy.ruby_system.L2Cache_Controller.ISS.Mem_Data::total           64                       (Unspecified)
board.cache_hierarchy.ruby_system.L2Cache_Controller.IS.L1_GET_INSTR |           1      7.69%      7.69% |           0      0.00%      7.69% |           0      0.00%      7.69% |           0      0.00%      7.69% |           0      0.00%      7.69% |           0      0.00%      7.69% |           1      7.69%     15.38% |           6     46.15%     61.54% |           0      0.00%     61.54% |           5     38.46%    100.00% |           0      0.00%    100.00% |           0      0.00%    100.00% |           0      0.00%    100.00% |           0      0.00%    100.00% |           0      0.00%    100.00% |           0      0.00%    100.00% (Unspecified)
board.cache_hierarchy.ruby_system.L2Cache_Controller.IS.L1_GET_INSTR::total           13                       (Unspecified)
board.cache_hierarchy.ruby_system.L2Cache_Controller.IS.Mem_Data |          26      6.74%      6.74% |          25      6.48%     13.21% |          26      6.74%     19.95% |          27      6.99%     26.94% |          26      6.74%     33.68% |          27      6.99%     40.67% |          27      6.99%     47.67% |          21      5.44%     53.11% |          19      4.92%     58.03% |          21      5.44%     63.47% |          20      5.18%     68.65% |          22      5.70%     74.35% |          26      6.74%     81.09% |          24      6.22%     87.31% |          24      6.22%     93.52% |          25      6.48%    100.00% (Unspecified)
board.cache_hierarchy.ruby_system.L2Cache_Controller.IS.Mem_Data::total          386                       (Unspecified)
board.cache_hierarchy.ruby_system.L2Cache_Controller.IM.Mem_Data |          45      5.13%      5.13% |          54      6.15%     11.28% |          63      7.18%     18.45% |          63      7.18%     25.63% |          63      7.18%     32.80% |          79      9.00%     41.80% |          62      7.06%     48.86% |          63      7.18%     56.04% |          63      7.18%     63.21% |          46      5.24%     68.45% |          46      5.24%     73.69% |          31      3.53%     77.22% |          48      5.47%     82.69% |          63      7.18%     89.86% |          52      5.92%     95.79% |          37      4.21%    100.00% (Unspecified)
board.cache_hierarchy.ruby_system.L2Cache_Controller.IM.Mem_Data::total          878                       (Unspecified)
board.cache_hierarchy.ruby_system.L2Cache_Controller.SS_MB.L1_GETS |           0      0.00%      0.00% |           4     14.81%     14.81% |           0      0.00%     14.81% |           0      0.00%     14.81% |           0      0.00%     14.81% |           0      0.00%     14.81% |           0      0.00%     14.81% |           0      0.00%     14.81% |           0      0.00%     14.81% |           0      0.00%     14.81% |          23     85.19%    100.00% |           0      0.00%    100.00% |           0      0.00%    100.00% |           0      0.00%    100.00% |           0      0.00%    100.00% |           0      0.00%    100.00% (Unspecified)
board.cache_hierarchy.ruby_system.L2Cache_Controller.SS_MB.L1_GETS::total           27                       (Unspecified)
board.cache_hierarchy.ruby_system.L2Cache_Controller.SS_MB.L1_GETX |           0      0.00%      0.00% |           0      0.00%      0.00% |           0      0.00%      0.00% |           0      0.00%      0.00% |           1      4.76%      4.76% |           1      4.76%      9.52% |           0      0.00%      9.52% |           0      0.00%      9.52% |           0      0.00%      9.52% |           0      0.00%      9.52% |          19     90.48%    100.00% |           0      0.00%    100.00% |           0      0.00%    100.00% |           0      0.00%    100.00% |           0      0.00%    100.00% |           0      0.00%    100.00% (Unspecified)
board.cache_hierarchy.ruby_system.L2Cache_Controller.SS_MB.L1_GETX::total           21                       (Unspecified)
board.cache_hierarchy.ruby_system.L2Cache_Controller.SS_MB.L1_UPGRADE |           0      0.00%      0.00% |           0      0.00%      0.00% |           0      0.00%      0.00% |           0      0.00%      0.00% |           0      0.00%      0.00% |           1     10.00%     10.00% |           0      0.00%     10.00% |           0      0.00%     10.00% |           0      0.00%     10.00% |           0      0.00%     10.00% |           9     90.00%    100.00% |           0      0.00%    100.00% |           0      0.00%    100.00% |           0      0.00%    100.00% |           0      0.00%    100.00% |           0      0.00%    100.00% (Unspecified)
board.cache_hierarchy.ruby_system.L2Cache_Controller.SS_MB.L1_UPGRADE::total           10                       (Unspecified)
board.cache_hierarchy.ruby_system.L2Cache_Controller.SS_MB.Exclusive_Unblock |           1      0.43%      0.43% |          57     24.46%     24.89% |          21      9.01%     33.91% |          10      4.29%     38.20% |          11      4.72%     42.92% |          31     13.30%     56.22% |           8      3.43%     59.66% |           5      2.15%     61.80% |           2      0.86%     62.66% |           2      0.86%     63.52% |          53     22.75%     86.27% |           0      0.00%     86.27% |          10      4.29%     90.56% |           3      1.29%     91.85% |          18      7.73%     99.57% |           1      0.43%    100.00% (Unspecified)
board.cache_hierarchy.ruby_system.L2Cache_Controller.SS_MB.Exclusive_Unblock::total          233                       (Unspecified)
board.cache_hierarchy.ruby_system.L2Cache_Controller.MT_MB.L1_GETS |           2      8.33%      8.33% |           0      0.00%      8.33% |           0      0.00%      8.33% |           0      0.00%      8.33% |           1      4.17%     12.50% |           0      0.00%     12.50% |           0      0.00%     12.50% |           0      0.00%     12.50% |           0      0.00%     12.50% |           0      0.00%     12.50% |          21     87.50%    100.00% |           0      0.00%    100.00% |           0      0.00%    100.00% |           0      0.00%    100.00% |           0      0.00%    100.00% |           0      0.00%    100.00% (Unspecified)
board.cache_hierarchy.ruby_system.L2Cache_Controller.MT_MB.L1_GETS::total           24                       (Unspecified)
board.cache_hierarchy.ruby_system.L2Cache_Controller.MT_MB.L1_GETX |           0      0.00%      0.00% |           0      0.00%      0.00% |           0      0.00%      0.00% |           0      0.00%      0.00% |           0      0.00%      0.00% |           0      0.00%      0.00% |           0      0.00%      0.00% |           0      0.00%      0.00% |           0      0.00%      0.00% |           0      0.00%      0.00% |          28    100.00%    100.00% |           0      0.00%    100.00% |           0      0.00%    100.00% |           0      0.00%    100.00% |           0      0.00%    100.00% |           0      0.00%    100.00% (Unspecified)
board.cache_hierarchy.ruby_system.L2Cache_Controller.MT_MB.L1_GETX::total           28                       (Unspecified)
board.cache_hierarchy.ruby_system.L2Cache_Controller.MT_MB.Exclusive_Unblock |         191      5.84%      5.84% |         208      6.36%     12.19% |         197      6.02%     18.21% |         211      6.45%     24.66% |         254      7.76%     32.42% |         262      8.00%     40.42% |         220      6.72%     47.14% |         220      6.72%     53.86% |         222      6.78%     60.65% |         186      5.68%     66.33% |         199      6.08%     72.41% |         154      4.71%     77.12% |         194      5.93%     83.04% |         192      5.87%     88.91% |         186      5.68%     94.59% |         177      5.41%    100.00% (Unspecified)
board.cache_hierarchy.ruby_system.L2Cache_Controller.MT_MB.Exclusive_Unblock::total         3273                       (Unspecified)
board.cache_hierarchy.ruby_system.L2Cache_Controller.MT_IIB.L1_GETS |          40      2.12%      2.12% |           0      0.00%      2.12% |         167      8.84%     10.95% |         154      8.15%     19.10% |         190     10.05%     29.15% |         189     10.00%     39.15% |         159      8.41%     47.57% |         134      7.09%     54.66% |         111      5.87%     60.53% |          95      5.03%     65.56% |         124      6.56%     72.12% |          93      4.92%     77.04% |         105      5.56%     82.59% |         111      5.87%     88.47% |         130      6.88%     95.34% |          88      4.66%    100.00% (Unspecified)
board.cache_hierarchy.ruby_system.L2Cache_Controller.MT_IIB.L1_GETS::total         1890                       (Unspecified)
board.cache_hierarchy.ruby_system.L2Cache_Controller.MT_IIB.L1_GETX |           0      0.00%      0.00% |           0      0.00%      0.00% |           0      0.00%      0.00% |           0      0.00%      0.00% |           0      0.00%      0.00% |           0      0.00%      0.00% |           0      0.00%      0.00% |           0      0.00%      0.00% |           0      0.00%      0.00% |           0      0.00%      0.00% |          21    100.00%    100.00% |           0      0.00%    100.00% |           0      0.00%    100.00% |           0      0.00%    100.00% |           0      0.00%    100.00% |           0      0.00%    100.00% (Unspecified)
board.cache_hierarchy.ruby_system.L2Cache_Controller.MT_IIB.L1_GETX::total           21                       (Unspecified)
board.cache_hierarchy.ruby_system.L2Cache_Controller.MT_IIB.WB_Data |          24      4.38%      4.38% |          63     11.50%     15.88% |          55     10.04%     25.91% |          28      5.11%     31.02% |          29      5.29%     36.31% |          58     10.58%     46.90% |          24      4.38%     51.28% |          21      3.83%     55.11% |          20      3.65%     58.76% |          40      7.30%     66.06% |          60     10.95%     77.01% |          19      3.47%     80.47% |          24      4.38%     84.85% |          23      4.20%     89.05% |          36      6.57%     95.62% |          24      4.38%    100.00% (Unspecified)
board.cache_hierarchy.ruby_system.L2Cache_Controller.MT_IIB.WB_Data::total          548                       (Unspecified)
board.cache_hierarchy.ruby_system.L2Cache_Controller.MT_IIB.WB_Data_clean |         107      5.95%      5.95% |          99      5.51%     11.46% |         115      6.40%     17.86% |         115      6.40%     24.26% |         113      6.29%     30.55% |         118      6.57%     37.12% |         116      6.46%     43.57% |         113      6.29%     49.86% |         112      6.23%     56.09% |         112      6.23%     62.33% |         113      6.29%     68.61% |         110      6.12%     74.74% |         116      6.46%     81.19% |         116      6.46%     87.65% |         114      6.34%     93.99% |         108      6.01%    100.00% (Unspecified)
[...]
board.processor.cores9.core.decode.decodedInsts       319437                       # Number of instructions handled by decode (Count)
board.processor.cores9.core.decode.squashedInsts          646                       # Number of squashed instructions handled by decode (Count)
board.processor.cores9.core.executeStats0.numInsts       192446                       # Number of executed instructions (Count)
board.processor.cores9.core.executeStats0.numNop            0                       # Number of nop insts executed (Count)
board.processor.cores9.core.executeStats0.numBranches        13156                       # Number of branches executed (Count)
board.processor.cores9.core.executeStats0.numLoadInsts        45895                       # Number of load instructions executed (Count)
board.processor.cores9.core.executeStats0.numStoreInsts        17223                       # Number of stores executed (Count)
board.processor.cores9.core.executeStats0.instRate     0.683392                       # Inst execution rate ((Count/Cycle))
board.processor.cores9.core.executeStats0.numCCRegReads        27579                       # Number of times the CC registers were read (Count)
board.processor.cores9.core.executeStats0.numCCRegWrites        42994                       # Number of times the CC registers were written (Count)
board.processor.cores9.core.executeStats0.numFpRegReads          664                       # Number of times the floating registers were read (Count)
board.processor.cores9.core.executeStats0.numFpRegWrites          399                       # Number of times the floating registers were written (Count)
board.processor.cores9.core.executeStats0.numIntRegReads       212378                       # Number of times the integer registers were read (Count)
board.processor.cores9.core.executeStats0.numIntRegWrites       146493                       # Number of times the integer registers were written (Count)
board.processor.cores9.core.executeStats0.numMemRefs        63118                       # Number of memory refs (Count)
board.processor.cores9.core.executeStats0.numMiscRegReads        89433                       # Number of times the Misc registers were read (Count)
board.processor.cores9.core.executeStats0.numMiscRegWrites            1                       # Number of times the Misc registers were written (Count)
board.processor.cores9.core.executeStats0.numVecAluAccesses            0                       # Number of vector alu accesses (Count)
board.processor.cores9.core.executeStats0.numDiscardedOps            0                       # Number of ops (including micro ops) which were discarded before commit (Count)
board.processor.cores9.core.fetch.predictedBranches        23220                       # Number of branches that fetch has predicted taken (Count)
board.processor.cores9.core.fetch.cycles       231448                       # Number of cycles fetch has run and was not squashing or blocked (Cycle)
board.processor.cores9.core.fetch.squashCycles         4656                       # Number of cycles fetch has spent squashing (Cycle)
board.processor.cores9.core.fetch.miscStallCycles           34                       # Number of cycles fetch has spent waiting on interrupts, or bad addresses, or out of MSHRs (Cycle)
board.processor.cores9.core.fetch.pendingTrapStallCycles          234                       # Number of stall cycles due to pending traps (Cycle)
board.processor.cores9.core.fetch.cacheLines        37738                       # Number of cache lines fetched (Count)
board.processor.cores9.core.fetch.icacheSquashes          123                       # Number of outstanding Icache misses that were squashed (Count)
board.processor.cores9.core.fetch.nisnDist::samples       278877                       # Number of instructions fetched each cycle (Total) (Count)
board.processor.cores9.core.fetch.nisnDist::mean     1.387203                       # Number of instructions fetched each cycle (Total) (Count)
board.processor.cores9.core.fetch.nisnDist::stdev     2.748954                       # Number of instructions fetched each cycle (Total) (Count)
board.processor.cores9.core.fetch.nisnDist::underflows            0      0.00%      0.00% # Number of instructions fetched each cycle (Total) (Count)
board.processor.cores9.core.fetch.nisnDist::0       209390     75.08%     75.08% # Number of instructions fetched each cycle (Total) (Count)
board.processor.cores9.core.fetch.nisnDist::1           86      0.03%     75.11% # Number of instructions fetched each cycle (Total) (Count)
board.processor.cores9.core.fetch.nisnDist::2        22619      8.11%     83.22% # Number of instructions fetched each cycle (Total) (Count)
board.processor.cores9.core.fetch.nisnDist::3          137      0.05%     83.27% # Number of instructions fetched each cycle (Total) (Count)
board.processor.cores9.core.fetch.nisnDist::4         2157      0.77%     84.05% # Number of instructions fetched each cycle (Total) (Count)
board.processor.cores9.core.fetch.nisnDist::5          146      0.05%     84.10% # Number of instructions fetched each cycle (Total) (Count)
board.processor.cores9.core.fetch.nisnDist::6        10376      3.72%     87.82% # Number of instructions fetched each cycle (Total) (Count)
board.processor.cores9.core.fetch.nisnDist::7         2218      0.80%     88.62% # Number of instructions fetched each cycle (Total) (Count)
board.processor.cores9.core.fetch.nisnDist::8        31748     11.38%    100.00% # Number of instructions fetched each cycle (Total) (Count)
board.processor.cores9.core.fetch.nisnDist::overflows            0      0.00%    100.00% # Number of instructions fetched each cycle (Total) (Count)
board.processor.cores9.core.fetch.nisnDist::min_value            0                       # Number of instructions fetched each cycle (Total) (Count)
board.processor.cores9.core.fetch.nisnDist::max_value            8                       # Number of instructions fetched each cycle (Total) (Count)
board.processor.cores9.core.fetch.nisnDist::total       278877                       # Number of instructions fetched each cycle (Total) (Count)
board.processor.cores9.core.fetchStats0.numInsts       262036                       # Number of instructions fetched (thread level) (Count)
board.processor.cores9.core.fetchStats0.numOps            0                       # Number of ops (including micro ops) fetched (thread level) (Count)
board.processor.cores9.core.fetchStats0.fetchRate     0.930512                       # Number of inst fetches per cycle ((Count/Cycle))
board.processor.cores9.core.fetchStats0.numBranches        23884                       # Number of branches fetched (Count)
board.processor.cores9.core.fetchStats0.branchRate     0.084814                       # Number of branch fetches per cycle (Ratio)
board.processor.cores9.core.fetchStats0.icacheStallCycles        44833                       # ICache total stall cycles (Cycle)
board.processor.cores9.core.fetchStats0.numFetchSuspends            0                       # Number of times Execute suspended instruction fetching (Count)
board.processor.cores9.core.iew.idleCycles            0                       # Number of cycles IEW is idle (Cycle)
board.processor.cores9.core.iew.squashCycles         2200                       # Number of cycles IEW is squashing (Cycle)
board.processor.cores9.core.iew.blockCycles       145697                       # Number of cycles IEW is blocking (Cycle)
board.processor.cores9.core.iew.unblockCycles         8157                       # Number of cycles IEW is unblocking (Cycle)
board.processor.cores9.core.iew.dispatchedInsts       285944                       # Number of instructions dispatched to IQ (Count)
board.processor.cores9.core.iew.dispSquashedInsts           16                       # Number of squashed instructions skipped by dispatch (Count)
board.processor.cores9.core.iew.dispLoadInsts        72745                       # Number of dispatched load instructions (Count)
board.processor.cores9.core.iew.dispStoreInsts        33756                       # Number of dispatched store instructions (Count)
board.processor.cores9.core.iew.dispNonSpecInsts         4148                       # Number of dispatched non-speculative instructions (Count)
board.processor.cores9.core.iew.iqFullEvents         3990                       # Number of times the IQ has become full, causing a stall (Count)
board.processor.cores9.core.iew.lsqFullEvents          190                       # Number of times the LSQ has become full, causing a stall (Count)
board.processor.cores9.core.iew.memOrderViolationEvents         2054                       # Number of memory order violations (Count)
board.processor.cores9.core.iew.predictedTakenIncorrect            9                       # Number of branches that were predicted taken incorrectly (Count)
board.processor.cores9.core.iew.predictedNotTakenIncorrect          136                       # Number of branches that were predicted not taken incorrectly (Count)
board.processor.cores9.core.iew.branchMispredicts          145                       # Number of branch mispredicts detected at execute (Count)
board.processor.cores9.core.iew.instsToCommit       192399                       # Cumulative count of insts sent to commit (Count)
board.processor.cores9.core.iew.writebackCount       192248                       # Cumulative count of insts written-back (Count)
board.processor.cores9.core.iew.producerInst       136071                       # Number of instructions producing a value (Count)
board.processor.cores9.core.iew.consumerInst       209760                       # Number of instructions consuming a value (Count)
board.processor.cores9.core.iew.wbRate       0.682689                       # Insts written-back per cycle ((Count/Cycle))
board.processor.cores9.core.iew.wbFanout     0.648699                       # Average fanout of values written-back ((Count/Count))
board.processor.cores9.core.interrupts.clk_domain.clock         5328                       # Clock period in ticks (Tick)
board.processor.cores9.core.lsq0.forwLoads         4288                       # Number of loads that had data forwarded from stores (Count)
board.processor.cores9.core.lsq0.squashedLoads        43473                       # Number of loads squashed (Count)
board.processor.cores9.core.lsq0.ignoredResponses            0                       # Number of memory responses ignored because the instruction is squashed (Count)
board.processor.cores9.core.lsq0.memOrderViolation         2054                       # Number of memory ordering violations (Count)
board.processor.cores9.core.lsq0.squashedStores        20740                       # Number of stores squashed (Count)
board.processor.cores9.core.lsq0.rescheduledLoads            0                       # Number of loads that were rescheduled (Count)
board.processor.cores9.core.lsq0.blockedByCache            3                       # Number of times an access to memory failed due to the cache being blocked (Count)
board.processor.cores9.core.lsq0.loadToUse::samples        29272                       # Distribution of cycle latency between the first time a load is issued and its completion (Unspecified)
board.processor.cores9.core.lsq0.loadToUse::mean     6.784299                       # Distribution of cycle latency between the first time a load is issued and its completion (Unspecified)
board.processor.cores9.core.lsq0.loadToUse::stdev    14.587745                       # Distribution of cycle latency between the first time a load is issued and its completion (Unspecified)
board.processor.cores9.core.lsq0.loadToUse::0-9        27150     92.75%     92.75% # Distribution of cycle latency between the first time a load is issued and its completion (Unspecified)
board.processor.cores9.core.lsq0.loadToUse::10-19          129      0.44%     93.19% # Distribution of cycle latency between the first time a load is issued and its completion (Unspecified)
board.processor.cores9.core.lsq0.loadToUse::20-29            2      0.01%     93.20% # Distribution of cycle latency between the first time a load is issued and its completion (Unspecified)
board.processor.cores9.core.lsq0.loadToUse::50-59         1844      6.30%     99.50% # Distribution of cycle latency between the first time a load is issued and its completion (Unspecified)
board.processor.cores9.core.lsq0.loadToUse::60-69          116      0.40%     99.89% # Distribution of cycle latency between the first time a load is issued and its completion (Unspecified)
board.processor.cores9.core.lsq0.loadToUse::70-79            6      0.02%     99.91% # Distribution of cycle latency between the first time a load is issued and its completion (Unspecified)
board.processor.cores9.core.lsq0.loadToUse::80-89           11      0.04%     99.95% # Distribution of cycle latency between the first time a load is issued and its completion (Unspecified)
board.processor.cores9.core.lsq0.loadToUse::90-99            8      0.03%     99.98% # Distribution of cycle latency between the first time a load is issued and its completion (Unspecified)
board.processor.cores9.core.lsq0.loadToUse::120-129            1      0.00%     99.98% # Distribution of cycle latency between the first time a load is issued and its completion (Unspecified)
board.processor.cores9.core.lsq0.loadToUse::150-159            1      0.00%     99.99% # Distribution of cycle latency between the first time a load is issued and its completion (Unspecified)
board.processor.cores9.core.lsq0.loadToUse::180-189            1      0.00%     99.99% # Distribution of cycle latency between the first time a load is issued and its completion (Unspecified)
board.processor.cores9.core.lsq0.loadToUse::230-239            1      0.00%     99.99% # Distribution of cycle latency between the first time a load is issued and its completion (Unspecified)
board.processor.cores9.core.lsq0.loadToUse::240-249            1      0.00%    100.00% # Distribution of cycle latency between the first time a load is issued and its completion (Unspecified)
board.processor.cores9.core.lsq0.loadToUse::270-279            1      0.00%    100.00% # Distribution of cycle latency between the first time a load is issued and its completion (Unspecified)
board.processor.cores9.core.lsq0.loadToUse::min_value            2                       # Distribution of cycle latency between the first time a load is issued and its completion (Unspecified)
board.processor.cores9.core.lsq0.loadToUse::max_value          278                       # Distribution of cycle latency between the first time a load is issued and its completion (Unspecified)
board.processor.cores9.core.lsq0.loadToUse::total        29272                       # Distribution of cycle latency between the first time a load is issued and its completion (Unspecified)
board.processor.cores9.core.mmu.dtb.rdAccesses        45882                       # TLB accesses on read requests (Count)
board.processor.cores9.core.mmu.dtb.wrAccesses        17223                       # TLB accesses on write requests (Count)
board.processor.cores9.core.mmu.dtb.rdMisses           85                       # TLB misses on read requests (Count)
board.processor.cores9.core.mmu.dtb.wrMisses           19                       # TLB misses on write requests (Count)
board.processor.cores9.core.mmu.dtb.walker.power_state.pwrStateResidencyTicks::UNDEFINED    407829429                       # Cumulative time (in ticks) in various power states (Tick)
board.processor.cores9.core.mmu.itb.rdAccesses            0                       # TLB accesses on read requests (Count)
board.processor.cores9.core.mmu.itb.wrAccesses        37774                       # TLB accesses on write requests (Count)
board.processor.cores9.core.mmu.itb.rdMisses            0                       # TLB misses on read requests (Count)
board.processor.cores9.core.mmu.itb.wrMisses           86                       # TLB misses on write requests (Count)
board.processor.cores9.core.mmu.itb.walker.power_state.pwrStateResidencyTicks::UNDEFINED    407829429                       # Cumulative time (in ticks) in various power states (Tick)
board.processor.cores9.core.power_state.pwrStateResidencyTicks::ON    407829429                       # Cumulative time (in ticks) in various power states (Tick)
board.processor.cores9.core.rename.squashCycles         2200                       # Number of cycles rename is squashing (Cycle)
board.processor.cores9.core.rename.idleCycles        32450                       # Number of cycles rename is idle (Cycle)
board.processor.cores9.core.rename.blockCycles       168881                       # Number of cycles rename is blocking (Cycle)
board.processor.cores9.core.rename.serializeStallCycles            0                       # count of cycles rename stalled for serializing inst (Cycle)
board.processor.cores9.core.rename.runCycles        44390                       # Number of cycles rename is running (Cycle)
board.processor.cores9.core.rename.unblockCycles        30956                       # Number of cycles rename is unblocking (Cycle)
board.processor.cores9.core.rename.renamedInsts       319101                       # Number of instructions processed by rename (Count)
board.processor.cores9.core.rename.ROBFullEvents           14                       # Number of times rename has blocked due to ROB full (Count)
board.processor.cores9.core.rename.IQFullEvents        20643                       # Number of times rename has blocked due to IQ full (Count)
board.processor.cores9.core.rename.LQFullEvents           65                       # Number of times rename has blocked due to LQ full (Count)
board.processor.cores9.core.rename.SQFullEvents         8131                       # Number of times rename has blocked due to SQ full (Count)
board.processor.cores9.core.rename.renamedOperands       456782                       # Number of destination operands rename has renamed (Count)
board.processor.cores9.core.rename.lookups       996407                       # Number of register rename lookups that rename has made (Count)
board.processor.cores9.core.rename.intLookups       376482                       # Number of integer rename lookups (Count)
board.processor.cores9.core.rename.fpLookups          669                       # Number of floating rename lookups (Count)
board.processor.cores9.core.rename.committedMaps       162251                       # Number of HB maps that are committed (Count)
board.processor.cores9.core.rename.undoneMaps       294531                       # Number of HB maps that are undone due to squashing (Count)
board.processor.cores9.core.rename.serializing            0                       # count of serializing insts renamed (Count)
board.processor.cores9.core.rename.tempSerializing            0                       # count of temporary serializing insts renamed (Count)
board.processor.cores9.core.rename.skidInsts        58860                       # count of insts added to the skid buffer (Count)
board.processor.cores9.core.rob.reads          539194                       # The number of ROB reads (Count)
board.processor.cores9.core.rob.writes         594509                       # The number of ROB writes (Count)
board.processor.cores9.core.thread_0.numInsts        74575                       # Number of Instructions committed (Count)
board.processor.cores9.core.thread_0.numOps       112384                       # Number of Ops committed (Count)
board.processor.cores9.core.thread_0.numMemRefs            0                       # Number of Memory References (Count)
board.workload.inst.arm                             0                       # number of arm instructions executed (Count)
board.workload.inst.quiesce                         0                       # number of quiesce instructions executed (Count)

---------- End Simulation Statistics   ----------
