
---------- Begin Simulation Statistics ----------
simSeconds                                   0.000880                       # Number of seconds simulated (Second)
simTicks                                    879853266                       # Number of ticks simulated (Tick)
finalTick                                  1138874985                       # Number of ticks from beginning of simulation (restored from checkpoints and never reset) (Tick)
simFreq                                  1000000000000                       # The number of ticks per simulated second ((Tick/Second))
hostSeconds                                     30.62                       # Real time elapsed on the host (Second)
hostTickRate                                 28730627                       # The number of ticks simulated per host second (ticks/s) ((Tick/Second))
hostMemory                                    1630036                       # Number of bytes of host memory used (Byte)
simInsts                                      1603861                       # Number of instructions simulated (Count)
simOps                                        2773668                       # Number of ops (including micro ops) simulated (Count)
hostInstRate                                    52372                       # Simulator instruction rate (inst/s) ((Count/Second))
hostOpRate                                      90571                       # Simulator op (including micro ops) rate (op/s) ((Count/Second))
board.cache_hierarchy.ruby_system.delayHistogram::bucket_size          256                       # delay histogram for all message (Unspecified)
board.cache_hierarchy.ruby_system.delayHistogram::max_bucket         2559                       # delay histogram for all message (Unspecified)
board.cache_hierarchy.ruby_system.delayHistogram::samples       145631                       # delay histogram for all message (Unspecified)
board.cache_hierarchy.ruby_system.delayHistogram::mean   358.518283                       # delay histogram for all message (Unspecified)
board.cache_hierarchy.ruby_system.delayHistogram::stdev   679.181392                       # delay histogram for all message (Unspecified)
board.cache_hierarchy.ruby_system.delayHistogram |      113408     77.87%     77.87% |         214      0.15%     78.02% |         241      0.17%     78.19% |         501      0.34%     78.53% |         528      0.36%     78.89% |        1943      1.33%     80.23% |       25217     17.32%     97.54% |        3579      2.46%    100.00% |           0      0.00%    100.00% |           0      0.00%    100.00% # delay histogram for all message (Unspecified)
board.cache_hierarchy.ruby_system.delayHistogram::total       145631                       # delay histogram for all message (Unspecified)
board.cache_hierarchy.ruby_system.m_outstandReqHistSeqr::bucket_size            2                       (Unspecified)
board.cache_hierarchy.ruby_system.m_outstandReqHistSeqr::max_bucket           19                       (Unspecified)
board.cache_hierarchy.ruby_system.m_outstandReqHistSeqr::samples      1060719                       (Unspecified)
board.cache_hierarchy.ruby_system.m_outstandReqHistSeqr::mean     1.128189                       (Unspecified)
board.cache_hierarchy.ruby_system.m_outstandReqHistSeqr::gmean     1.089032                       (Unspecified)
board.cache_hierarchy.ruby_system.m_outstandReqHistSeqr::stdev     0.384921                       (Unspecified)
board.cache_hierarchy.ruby_system.m_outstandReqHistSeqr |      935645     88.21%     88.21% |      122727     11.57%     99.78% |        2061      0.19%     99.97% |         173      0.02%     99.99% |          39      0.00%     99.99% |          30      0.00%    100.00% |          29      0.00%    100.00% |          12      0.00%    100.00% |           3      0.00%    100.00% |           0      0.00%    100.00% (Unspecified)
board.cache_hierarchy.ruby_system.m_outstandReqHistSeqr::total      1060719                       (Unspecified)
board.cache_hierarchy.ruby_system.m_latencyHistSeqr::bucket_size          256                       (Unspecified)
board.cache_hierarchy.ruby_system.m_latencyHistSeqr::max_bucket         2559                       (Unspecified)
board.cache_hierarchy.ruby_system.m_latencyHistSeqr::samples      1060994                       (Unspecified)
board.cache_hierarchy.ruby_system.m_latencyHistSeqr::mean    17.941887                       (Unspecified)
board.cache_hierarchy.ruby_system.m_latencyHistSeqr::gmean     1.236114                       (Unspecified)
board.cache_hierarchy.ruby_system.m_latencyHistSeqr::stdev    93.900210                       (Unspecified)
board.cache_hierarchy.ruby_system.m_latencyHistSeqr |     1028762     96.96%     96.96% |        2746      0.26%     97.22% |       29475      2.78%    100.00% |           0      0.00%    100.00% |          10      0.00%    100.00% |           1      0.00%    100.00% |           0      0.00%    100.00% |           0      0.00%    100.00% |           0      0.00%    100.00% |           0      0.00%    100.00% (Unspecified)
board.cache_hierarchy.ruby_system.m_latencyHistSeqr::total      1060994                       (Unspecified)
board.cache_hierarchy.ruby_system.m_hitLatencyHistSeqr::bucket_size           32                       (Unspecified)
board.cache_hierarchy.ruby_system.m_hitLatencyHistSeqr::max_bucket          319                       (Unspecified)
board.cache_hierarchy.ruby_system.m_hitLatencyHistSeqr::samples      1023577                       (Unspecified)
board.cache_hierarchy.ruby_system.m_hitLatencyHistSeqr::mean     1.000822                       (Unspecified)
board.cache_hierarchy.ruby_system.m_hitLatencyHistSeqr::gmean     1.000204                       (Unspecified)
board.cache_hierarchy.ruby_system.m_hitLatencyHistSeqr::stdev     0.299955                       (Unspecified)
board.cache_hierarchy.ruby_system.m_hitLatencyHistSeqr |     1023573    100.00%    100.00% |           1      0.00%    100.00% |           0      0.00%    100.00% |           0      0.00%    100.00% |           1      0.00%    100.00% |           1      0.00%    100.00% |           1      0.00%    100.00% |           0      0.00%    100.00% |           0      0.00%    100.00% |           0      0.00%    100.00% (Unspecified)
board.cache_hierarchy.ruby_system.m_hitLatencyHistSeqr::total      1023577                       (Unspecified)
board.cache_hierarchy.ruby_system.m_missLatencyHistSeqr::bucket_size          256                       (Unspecified)
board.cache_hierarchy.ruby_system.m_missLatencyHistSeqr::max_bucket         2559                       (Unspecified)
board.cache_hierarchy.ruby_system.m_missLatencyHistSeqr::samples        37417                       (Unspecified)
board.cache_hierarchy.ruby_system.m_missLatencyHistSeqr::mean   481.380549                       (Unspecified)
board.cache_hierarchy.ruby_system.m_missLatencyHistSeqr::gmean   405.491398                       (Unspecified)
board.cache_hierarchy.ruby_system.m_missLatencyHistSeqr::stdev   165.507841                       (Unspecified)
board.cache_hierarchy.ruby_system.m_missLatencyHistSeqr |        5185     13.86%     13.86% |        2746      7.34%     21.20% |       29475     78.77%     99.97% |           0      0.00%     99.97% |          10      0.03%    100.00% |           1      0.00%    100.00% |           0      0.00%    100.00% |           0      0.00%    100.00% |           0      0.00%    100.00% |           0      0.00%    100.00% (Unspecified)
board.cache_hierarchy.ruby_system.m_missLatencyHistSeqr::total        37417                       (Unspecified)
board.cache_hierarchy.ruby_system.delayVCHist.vnet_0::bucket_size          256                       # delay histogram for vnet_0 (Unspecified)
board.cache_hierarchy.ruby_system.delayVCHist.vnet_0::max_bucket         2559                       # delay histogram for vnet_0 (Unspecified)
board.cache_hierarchy.ruby_system.delayVCHist.vnet_0::samples        73244                       # delay histogram for vnet_0 (Unspecified)
board.cache_hierarchy.ruby_system.delayVCHist.vnet_0::mean   712.808858                       # delay histogram for vnet_0 (Unspecified)
board.cache_hierarchy.ruby_system.delayVCHist.vnet_0::stdev   815.260817                       # delay histogram for vnet_0 (Unspecified)
board.cache_hierarchy.ruby_system.delayVCHist.vnet_0 |       41021     56.01%     56.01% |         214      0.29%     56.30% |         241      0.33%     56.63% |         501      0.68%     57.31% |         528      0.72%     58.03% |        1943      2.65%     60.68% |       25217     34.43%     95.11% |        3579      4.89%    100.00% |           0      0.00%    100.00% |           0      0.00%    100.00% # delay histogram for vnet_0 (Unspecified)
board.cache_hierarchy.ruby_system.delayVCHist.vnet_0::total        73244                       # delay histogram for vnet_0 (Unspecified)
board.cache_hierarchy.ruby_system.delayVCHist.vnet_1::bucket_size            4                       # delay histogram for vnet_1 (Unspecified)
board.cache_hierarchy.ruby_system.delayVCHist.vnet_1::max_bucket           39                       # delay histogram for vnet_1 (Unspecified)
board.cache_hierarchy.ruby_system.delayVCHist.vnet_1::samples        39049                       # delay histogram for vnet_1 (Unspecified)
board.cache_hierarchy.ruby_system.delayVCHist.vnet_1::mean     0.061564                       # delay histogram for vnet_1 (Unspecified)
board.cache_hierarchy.ruby_system.delayVCHist.vnet_1::stdev     0.700996                       # delay histogram for vnet_1 (Unspecified)
board.cache_hierarchy.ruby_system.delayVCHist.vnet_1 |       38738     99.20%     99.20% |         115      0.29%     99.50% |         178      0.46%     99.95% |           9      0.02%     99.98% |           7      0.02%     99.99% |           0      0.00%     99.99% |           2      0.01%    100.00% |           0      0.00%    100.00% |           0      0.00%    100.00% |           0      0.00%    100.00% # delay histogram for vnet_1 (Unspecified)
board.cache_hierarchy.ruby_system.delayVCHist.vnet_1::total        39049                       # delay histogram for vnet_1 (Unspecified)
board.cache_hierarchy.ruby_system.delayVCHist.vnet_2::bucket_size            1                       # delay histogram for vnet_2 (Unspecified)
board.cache_hierarchy.ruby_system.delayVCHist.vnet_2::max_bucket            9                       # delay histogram for vnet_2 (Unspecified)
board.cache_hierarchy.ruby_system.delayVCHist.vnet_2::samples        33338                       # delay histogram for vnet_2 (Unspecified)
board.cache_hierarchy.ruby_system.delayVCHist.vnet_2 |       33338    100.00%    100.00% |           0      0.00%    100.00% |           0      0.00%    100.00% |           0      0.00%    100.00% |           0      0.00%    100.00% |           0      0.00%    100.00% |           0      0.00%    100.00% |           0      0.00%    100.00% |           0      0.00%    100.00% |           0      0.00%    100.00% # delay histogram for vnet_2 (Unspecified)
board.cache_hierarchy.ruby_system.delayVCHist.vnet_2::total        33338                       # delay histogram for vnet_2 (Unspecified)
board.cache_hierarchy.ruby_system.Directory_Controller.Fetch          816      0.00%      0.00% (Unspecified)
board.cache_hierarchy.ruby_system.Directory_Controller.Memory_Data          816      0.00%      0.00% (Unspecified)
board.cache_hierarchy.ruby_system.Directory_Controller.I.Fetch          816      0.00%      0.00% (Unspecified)
board.cache_hierarchy.ruby_system.Directory_Controller.IM.Memory_Data          816      0.00%      0.00% (Unspecified)
board.cache_hierarchy.ruby_system.L1Cache_Controller.Load |        6717      2.46%      2.46% |       33376     12.21%     14.66% |       33317     12.19%     26.85% |       33315     12.19%     39.04% |       33323     12.19%     51.23% |       33332     12.19%     63.42% |       33327     12.19%     75.61% |       33343     12.20%     87.80% |       33344     12.20%    100.00% (Unspecified)
board.cache_hierarchy.ruby_system.L1Cache_Controller.Load::total       273394                       (Unspecified)
board.cache_hierarchy.ruby_system.L1Cache_Controller.Ifetch |       11587      2.27%      2.27% |       62191     12.21%     14.48% |       62207     12.21%     26.69% |       62214     12.21%     38.91% |       62222     12.21%     51.12% |       62217     12.21%     63.34% |       62205     12.21%     75.55% |       62286     12.23%     87.77% |       62278     12.23%    100.00% (Unspecified)
board.cache_hierarchy.ruby_system.L1Cache_Controller.Ifetch::total       509407                       (Unspecified)
board.cache_hierarchy.ruby_system.L1Cache_Controller.Store |       11517      4.14%      4.14% |       33520     12.05%     16.19% |       33225     11.94%     28.13% |       33225     11.94%     40.08% |       33225     11.94%     52.02% |       33225     11.94%     63.96% |       33225     11.94%     75.90% |       33516     12.05%     87.95% |       33516     12.05%    100.00% (Unspecified)
board.cache_hierarchy.ruby_system.L1Cache_Controller.Store::total       278194                       (Unspecified)
board.cache_hierarchy.ruby_system.L1Cache_Controller.Inv |          43     36.75%     36.75% |          10      8.55%     45.30% |          10      8.55%     53.85% |          11      9.40%     63.25% |          11      9.40%     72.65% |          12     10.26%     82.91% |           7      5.98%     88.89% |           7      5.98%     94.87% |           6      5.13%    100.00% (Unspecified)
board.cache_hierarchy.ruby_system.L1Cache_Controller.Inv::total          117                       (Unspecified)
board.cache_hierarchy.ruby_system.L1Cache_Controller.L1_Replacement |         627     99.68%     99.68% |           0      0.00%     99.68% |           0      0.00%     99.68% |           0      0.00%     99.68% |           0      0.00%     99.68% |           2      0.32%    100.00% |           0      0.00%    100.00% |           0      0.00%    100.00% |           0      0.00%    100.00% (Unspecified)
board.cache_hierarchy.ruby_system.L1Cache_Controller.L1_Replacement::total          629                       (Unspecified)
board.cache_hierarchy.ruby_system.L1Cache_Controller.Fwd_GETX |          23      0.07%      0.07% |        4013     12.26%     12.33% |        4105     12.54%     24.86% |        4109     12.55%     37.41% |        4109     12.55%     49.96% |        4109     12.55%     62.51% |        4097     12.51%     75.02% |        4098     12.51%     87.53% |        4082     12.47%    100.00% (Unspecified)
board.cache_hierarchy.ruby_system.L1Cache_Controller.Fwd_GETX::total        32745                       (Unspecified)
board.cache_hierarchy.ruby_system.L1Cache_Controller.Fwd_GETS |         380     79.83%     79.83% |          19      3.99%     83.82% |          14      2.94%     86.76% |          13      2.73%     89.50% |          13      2.73%     92.23% |          13      2.73%     94.96% |           8      1.68%     96.64% |          10      2.10%     98.74% |           6      1.26%    100.00% (Unspecified)
board.cache_hierarchy.ruby_system.L1Cache_Controller.Fwd_GETS::total          476                       (Unspecified)
board.cache_hierarchy.ruby_system.L1Cache_Controller.Data |           0      0.00%      0.00% |           0      0.00%      0.00% |           0      0.00%      0.00% |           0      0.00%      0.00% |           0      0.00%      0.00% |           0      0.00%      0.00% |           0      0.00%      0.00% |           1    100.00%    100.00% |           0      0.00%    100.00% (Unspecified)
board.cache_hierarchy.ruby_system.L1Cache_Controller.Data::total            1                       (Unspecified)
board.cache_hierarchy.ruby_system.L1Cache_Controller.Data_Exclusive |          62      3.35%      3.35% |         266     14.36%     17.70% |         261     14.09%     31.79% |         260     14.03%     45.82% |         261     14.09%     59.90% |         261     14.09%     73.99% |         261     14.09%     88.07% |         172      9.28%     97.36% |          49      2.64%    100.00% (Unspecified)
board.cache_hierarchy.ruby_system.L1Cache_Controller.Data_Exclusive::total         1853                       (Unspecified)
board.cache_hierarchy.ruby_system.L1Cache_Controller.DataS_fromL1 |          27      5.67%      5.67% |          20      4.20%      9.87% |          23      4.83%     14.71% |          18      3.78%     18.49% |          19      3.99%     22.48% |          18      3.78%     26.26% |          19      3.99%     30.25% |         104     21.85%     52.10% |         228     47.90%    100.00% (Unspecified)
board.cache_hierarchy.ruby_system.L1Cache_Controller.DataS_fromL1::total          476                       (Unspecified)
board.cache_hierarchy.ruby_system.L1Cache_Controller.Data_all_Acks |         554      1.58%      1.58% |        4248     12.14%     13.73% |        4287     12.25%     25.98% |        4297     12.28%     38.27% |        4296     12.28%     50.55% |        4299     12.29%     62.84% |        4296     12.28%     75.12% |        4359     12.46%     87.58% |        4346     12.42%    100.00% (Unspecified)
board.cache_hierarchy.ruby_system.L1Cache_Controller.Data_all_Acks::total        34982                       (Unspecified)
board.cache_hierarchy.ruby_system.L1Cache_Controller.Ack |          14     12.07%     12.07% |          10      8.62%     20.69% |          13     11.21%     31.90% |          12     10.34%     42.24% |          13     11.21%     53.45% |          11      9.48%     62.93% |          15     12.93%     75.86% |          18     15.52%     91.38% |          10      8.62%    100.00% (Unspecified)
board.cache_hierarchy.ruby_system.L1Cache_Controller.Ack::total          116                       (Unspecified)
board.cache_hierarchy.ruby_system.L1Cache_Controller.Ack_all |          14     13.21%     13.21% |          10      9.43%     22.64% |          12     11.32%     33.96% |          12     11.32%     45.28% |          13     12.26%     57.55% |          11     10.38%     67.92% |          13     12.26%     80.19% |          12     11.32%     91.51% |           9      8.49%    100.00% (Unspecified)
board.cache_hierarchy.ruby_system.L1Cache_Controller.Ack_all::total          106                       (Unspecified)
board.cache_hierarchy.ruby_system.L1Cache_Controller.WB_Ack |         223    100.00%    100.00% |           0      0.00%    100.00% |           0      0.00%    100.00% |           0      0.00%    100.00% |           0      0.00%    100.00% |           0      0.00%    100.00% |           0      0.00%    100.00% |           0      0.00%    100.00% |           0      0.00%    100.00% (Unspecified)
board.cache_hierarchy.ruby_system.L1Cache_Controller.WB_Ack::total          223                       (Unspecified)
board.cache_hierarchy.ruby_system.L1Cache_Controller.NP.Load |          92      3.82%      3.82% |         286     11.89%     15.71% |         290     12.05%     27.76% |         290     12.05%     39.82% |         291     12.09%     51.91% |         291     12.09%     64.01% |         291     12.09%     76.10% |         287     11.93%     88.03% |         288     11.97%    100.00% (Unspecified)
board.cache_hierarchy.ruby_system.L1Cache_Controller.NP.Load::total         2406                       (Unspecified)
board.cache_hierarchy.ruby_system.L1Cache_Controller.NP.Ifetch |         329     19.25%     19.25% |         188     11.00%     30.25% |         162      9.48%     39.73% |         162      9.48%     49.21% |         162      9.48%     58.69% |         163      9.54%     68.23% |         163      9.54%     77.76% |         190     11.12%     88.88% |         190     11.12%    100.00% (Unspecified)
board.cache_hierarchy.ruby_system.L1Cache_Controller.NP.Ifetch::total         1709                       (Unspecified)
board.cache_hierarchy.ruby_system.L1Cache_Controller.NP.Store |         204     39.46%     39.46% |          60     11.61%     51.06% |          27      5.22%     56.29% |          27      5.22%     61.51% |          27      5.22%     66.73% |          27      5.22%     71.95% |          26      5.03%     76.98% |          60     11.61%     88.59% |          59     11.41%    100.00% (Unspecified)
board.cache_hierarchy.ruby_system.L1Cache_Controller.NP.Store::total          517                       (Unspecified)
board.cache_hierarchy.ruby_system.L1Cache_Controller.NP.Inv |           5    100.00%    100.00% |           0      0.00%    100.00% |           0      0.00%    100.00% |           0      0.00%    100.00% |           0      0.00%    100.00% |           0      0.00%    100.00% |           0      0.00%    100.00% |           0      0.00%    100.00% |           0      0.00%    100.00% (Unspecified)
board.cache_hierarchy.ruby_system.L1Cache_Controller.NP.Inv::total            5                       (Unspecified)
board.cache_hierarchy.ruby_system.L1Cache_Controller.I.Load |          16     59.26%     59.26% |           1      3.70%     62.96% |           0      0.00%     62.96% |           0      0.00%     62.96% |           1      3.70%     66.67% |           1      3.70%     70.37% |           1      3.70%     74.07% |           4     14.81%     88.89% |           3     11.11%    100.00% (Unspecified)
board.cache_hierarchy.ruby_system.L1Cache_Controller.I.Load::total           27                       (Unspecified)
board.cache_hierarchy.ruby_system.L1Cache_Controller.I.Store |           2      0.01%      0.01% |        3999     12.25%     12.25% |        4092     12.53%     24.78% |        4096     12.54%     37.33% |        4095     12.54%     49.87% |        4096     12.54%     62.41% |        4095     12.54%     74.95% |        4095     12.54%     87.50% |        4083     12.50%    100.00% (Unspecified)
board.cache_hierarchy.ruby_system.L1Cache_Controller.I.Store::total        32653                       (Unspecified)
board.cache_hierarchy.ruby_system.L1Cache_Controller.I.L1_Replacement |          21    100.00%    100.00% |           0      0.00%    100.00% |           0      0.00%    100.00% |           0      0.00%    100.00% |           0      0.00%    100.00% |           0      0.00%    100.00% |           0      0.00%    100.00% |           0      0.00%    100.00% |           0      0.00%    100.00% (Unspecified)
board.cache_hierarchy.ruby_system.L1Cache_Controller.I.L1_Replacement::total           21                       (Unspecified)
board.cache_hierarchy.ruby_system.L1Cache_Controller.S.Load |          89      1.73%      1.73% |          63      1.23%      2.96% |          67      1.30%      4.26% |          64      1.25%      5.51% |          63      1.23%      6.73% |          64      1.25%      7.98% |          85      1.65%      9.63% |        1400     27.25%     36.88% |        3243     63.12%    100.00% (Unspecified)
board.cache_hierarchy.ruby_system.L1Cache_Controller.S.Load::total         5138                       (Unspecified)
board.cache_hierarchy.ruby_system.L1Cache_Controller.S.Ifetch |       11257      2.22%      2.22% |       62003     12.21%     14.43% |       62045     12.22%     26.65% |       62052     12.22%     38.87% |       62060     12.22%     51.10% |       62054     12.22%     63.32% |       62042     12.22%     75.54% |       62096     12.23%     87.77% |       62088     12.23%    100.00% (Unspecified)
board.cache_hierarchy.ruby_system.L1Cache_Controller.S.Ifetch::total       507697                       (Unspecified)
board.cache_hierarchy.ruby_system.L1Cache_Controller.S.Store |          14     13.33%     13.33% |          10      9.52%     22.86% |          12     11.43%     34.29% |          12     11.43%     45.71% |          13     12.38%     58.10% |          11     10.48%     68.57% |          13     12.38%     80.95% |          11     10.48%     91.43% |           9      8.57%    100.00% (Unspecified)
board.cache_hierarchy.ruby_system.L1Cache_Controller.S.Store::total          105                       (Unspecified)
board.cache_hierarchy.ruby_system.L1Cache_Controller.S.Inv |          38     33.93%     33.93% |          10      8.93%     42.86% |          10      8.93%     51.79% |          11      9.82%     61.61% |          11      9.82%     71.43% |          12     10.71%     82.14% |           7      6.25%     88.39% |           7      6.25%     94.64% |           6      5.36%    100.00% (Unspecified)
board.cache_hierarchy.ruby_system.L1Cache_Controller.S.Inv::total          112                       (Unspecified)
board.cache_hierarchy.ruby_system.L1Cache_Controller.S.L1_Replacement |         383     99.48%     99.48% |           0      0.00%     99.48% |           0      0.00%     99.48% |           0      0.00%     99.48% |           0      0.00%     99.48% |           2      0.52%    100.00% |           0      0.00%    100.00% |           0      0.00%    100.00% |           0      0.00%    100.00% (Unspecified)
board.cache_hierarchy.ruby_system.L1Cache_Controller.S.L1_Replacement::total          385                       (Unspecified)
board.cache_hierarchy.ruby_system.L1Cache_Controller.E.Load |         946      3.48%      3.48% |        3840     14.14%     17.62% |        3836     14.13%     31.75% |        3836     14.13%     45.87% |        3836     14.13%     60.00% |        3836     14.13%     74.12% |        3836     14.13%     88.25% |        2516      9.26%     97.51% |         675      2.49%    100.00% (Unspecified)
board.cache_hierarchy.ruby_system.L1Cache_Controller.E.Load::total        27157                       (Unspecified)
board.cache_hierarchy.ruby_system.L1Cache_Controller.E.Store |          22     88.00%     88.00% |           0      0.00%     88.00% |           0      0.00%     88.00% |           0      0.00%     88.00% |           0      0.00%     88.00% |           1      4.00%     92.00% |           1      4.00%     96.00% |           0      0.00%     96.00% |           1      4.00%    100.00% (Unspecified)
board.cache_hierarchy.ruby_system.L1Cache_Controller.E.Store::total           25                       (Unspecified)
board.cache_hierarchy.ruby_system.L1Cache_Controller.E.L1_Replacement |           5    100.00%    100.00% |           0      0.00%    100.00% |           0      0.00%    100.00% |           0      0.00%    100.00% |           0      0.00%    100.00% |           0      0.00%    100.00% |           0      0.00%    100.00% |           0      0.00%    100.00% |           0      0.00%    100.00% (Unspecified)
board.cache_hierarchy.ruby_system.L1Cache_Controller.E.L1_Replacement::total            5                       (Unspecified)
board.cache_hierarchy.ruby_system.L1Cache_Controller.E.Fwd_GETS |           8     28.57%     28.57% |           7     25.00%     53.57% |           3     10.71%     64.29% |           2      7.14%     71.43% |           2      7.14%     78.57% |           2      7.14%     85.71% |           2      7.14%     92.86% |           2      7.14%    100.00% |           0      0.00%    100.00% (Unspecified)
board.cache_hierarchy.ruby_system.L1Cache_Controller.E.Fwd_GETS::total           28                       (Unspecified)
board.cache_hierarchy.ruby_system.L1Cache_Controller.M.Load |        5574      2.34%      2.34% |       29186     12.23%     14.56% |       29124     12.20%     26.77% |       29125     12.20%     38.97% |       29132     12.21%     51.18% |       29140     12.21%     63.39% |       29114     12.20%     75.58% |       29136     12.21%     87.79% |       29135     12.21%    100.00% (Unspecified)
board.cache_hierarchy.ruby_system.L1Cache_Controller.M.Load::total       238666                       (Unspecified)
board.cache_hierarchy.ruby_system.L1Cache_Controller.M.Store |       11275      4.60%      4.60% |       29451     12.03%     16.63% |       29094     11.88%     28.51% |       29090     11.88%     40.39% |       29090     11.88%     52.27% |       29090     11.88%     64.15% |       29090     11.88%     76.02% |       29350     11.98%     88.01% |       29364     11.99%    100.00% (Unspecified)
board.cache_hierarchy.ruby_system.L1Cache_Controller.M.Store::total       244894                       (Unspecified)
board.cache_hierarchy.ruby_system.L1Cache_Controller.M.L1_Replacement |         218    100.00%    100.00% |           0      0.00%    100.00% |           0      0.00%    100.00% |           0      0.00%    100.00% |           0      0.00%    100.00% |           0      0.00%    100.00% |           0      0.00%    100.00% |           0      0.00%    100.00% |           0      0.00%    100.00% (Unspecified)
board.cache_hierarchy.ruby_system.L1Cache_Controller.M.L1_Replacement::total          218                       (Unspecified)
board.cache_hierarchy.ruby_system.L1Cache_Controller.M.Fwd_GETX |          23      0.07%      0.07% |        4013     12.26%     12.33% |        4105     12.54%     24.86% |        4109     12.55%     37.41% |        4109     12.55%     49.96% |        4109     12.55%     62.51% |        4097     12.51%     75.02% |        4098     12.51%     87.53% |        4082     12.47%    100.00% (Unspecified)
board.cache_hierarchy.ruby_system.L1Cache_Controller.M.Fwd_GETX::total        32745                       (Unspecified)
board.cache_hierarchy.ruby_system.L1Cache_Controller.M.Fwd_GETS |         372     83.04%     83.04% |          12      2.68%     85.71% |          11      2.46%     88.17% |          11      2.46%     90.62% |          11      2.46%     93.08% |          11      2.46%     95.54% |           6      1.34%     96.87% |           8      1.79%     98.66% |           6      1.34%    100.00% (Unspecified)
board.cache_hierarchy.ruby_system.L1Cache_Controller.M.Fwd_GETS::total          448                       (Unspecified)
board.cache_hierarchy.ruby_system.L1Cache_Controller.IS.Data_Exclusive |          62      3.35%      3.35% |         266     14.36%     17.70% |         261     14.09%     31.79% |         260     14.03%     45.82% |         261     14.09%     59.90% |         261     14.09%     73.99% |         261     14.09%     88.07% |         172      9.28%     97.36% |          49      2.64%    100.00% (Unspecified)
board.cache_hierarchy.ruby_system.L1Cache_Controller.IS.Data_Exclusive::total         1853                       (Unspecified)
board.cache_hierarchy.ruby_system.L1Cache_Controller.IS.DataS_fromL1 |          27      5.67%      5.67% |          20      4.20%      9.87% |          23      4.83%     14.71% |          18      3.78%     18.49% |          19      3.99%     22.48% |          18      3.78%     26.26% |          19      3.99%     30.25% |         104     21.85%     52.10% |         228     47.90%    100.00% (Unspecified)
board.cache_hierarchy.ruby_system.L1Cache_Controller.IS.DataS_fromL1::total          476                       (Unspecified)
board.cache_hierarchy.ruby_system.L1Cache_Controller.IS.Data_all_Acks |         348     19.19%     19.19% |         189     10.42%     29.62% |         168      9.27%     38.89% |         174      9.60%     48.48% |         174      9.60%     58.08% |         176      9.71%     67.79% |         175      9.65%     77.44% |         205     11.31%     88.75% |         204     11.25%    100.00% (Unspecified)
board.cache_hierarchy.ruby_system.L1Cache_Controller.IS.Data_all_Acks::total         1813                       (Unspecified)
board.cache_hierarchy.ruby_system.L1Cache_Controller.IM.Data |           0      0.00%      0.00% |           0      0.00%      0.00% |           0      0.00%      0.00% |           0      0.00%      0.00% |           0      0.00%      0.00% |           0      0.00%      0.00% |           0      0.00%      0.00% |           1    100.00%    100.00% |           0      0.00%    100.00% (Unspecified)
board.cache_hierarchy.ruby_system.L1Cache_Controller.IM.Data::total            1                       (Unspecified)
board.cache_hierarchy.ruby_system.L1Cache_Controller.IM.Data_all_Acks |         206      0.62%      0.62% |        4059     12.24%     12.86% |        4119     12.42%     25.28% |        4123     12.43%     37.71% |        4122     12.43%     50.13% |        4123     12.43%     62.56% |        4121     12.42%     74.99% |        4154     12.52%     87.51% |        4142     12.49%    100.00% (Unspecified)
board.cache_hierarchy.ruby_system.L1Cache_Controller.IM.Data_all_Acks::total        33169                       (Unspecified)
board.cache_hierarchy.ruby_system.L1Cache_Controller.SM.Ack |          14     12.07%     12.07% |          10      8.62%     20.69% |          13     11.21%     31.90% |          12     10.34%     42.24% |          13     11.21%     53.45% |          11      9.48%     62.93% |          15     12.93%     75.86% |          18     15.52%     91.38% |          10      8.62%    100.00% (Unspecified)
board.cache_hierarchy.ruby_system.L1Cache_Controller.SM.Ack::total          116                       (Unspecified)
board.cache_hierarchy.ruby_system.L1Cache_Controller.SM.Ack_all |          14     13.21%     13.21% |          10      9.43%     22.64% |          12     11.32%     33.96% |          12     11.32%     45.28% |          13     12.26%     57.55% |          11     10.38%     67.92% |          13     12.26%     80.19% |          12     11.32%     91.51% |           9      8.49%    100.00% (Unspecified)
board.cache_hierarchy.ruby_system.L1Cache_Controller.SM.Ack_all::total          106                       (Unspecified)
board.cache_hierarchy.ruby_system.L1Cache_Controller.M_I.Ifetch |           1    100.00%    100.00% |           0      0.00%    100.00% |           0      0.00%    100.00% |           0      0.00%    100.00% |           0      0.00%    100.00% |           0      0.00%    100.00% |           0      0.00%    100.00% |           0      0.00%    100.00% |           0      0.00%    100.00% (Unspecified)
board.cache_hierarchy.ruby_system.L1Cache_Controller.M_I.Ifetch::total            1                       (Unspecified)
board.cache_hierarchy.ruby_system.L1Cache_Controller.M_I.WB_Ack |         223    100.00%    100.00% |           0      0.00%    100.00% |           0      0.00%    100.00% |           0      0.00%    100.00% |           0      0.00%    100.00% |           0      0.00%    100.00% |           0      0.00%    100.00% |           0      0.00%    100.00% |           0      0.00%    100.00% (Unspecified)
board.cache_hierarchy.ruby_system.L1Cache_Controller.M_I.WB_Ack::total          223                       (Unspecified)
board.cache_hierarchy.ruby_system.L2Cache_Controller.L1_GET_INSTR |         215     12.58%     12.58% |         195     11.41%     23.99% |         191     11.18%     35.17% |         201     11.76%     46.93% |         221     12.93%     59.86% |         230     13.46%     73.32% |         252     14.75%     88.06% |         204     11.94%    100.00% (Unspecified)
board.cache_hierarchy.ruby_system.L2Cache_Controller.L1_GET_INSTR::total         1709                       (Unspecified)
board.cache_hierarchy.ruby_system.L2Cache_Controller.L1_GETS |         281     11.55%     11.55% |         330     13.56%     25.11% |         321     13.19%     38.31% |         290     11.92%     50.23% |         308     12.66%     62.89% |         298     12.25%     75.13% |         315     12.95%     88.08% |         290     11.92%    100.00% (Unspecified)
board.cache_hierarchy.ruby_system.L2Cache_Controller.L1_GETS::total         2433                       (Unspecified)
board.cache_hierarchy.ruby_system.L2Cache_Controller.L1_GETX |      246153     99.82%     99.82% |          55      0.02%     99.84% |          58      0.02%     99.86% |          50      0.02%     99.88% |          76      0.03%     99.91% |          85      0.03%     99.95% |          64      0.03%     99.98% |          61      0.02%    100.00% (Unspecified)
board.cache_hierarchy.ruby_system.L2Cache_Controller.L1_GETX::total       246602                       (Unspecified)
board.cache_hierarchy.ruby_system.L2Cache_Controller.L1_UPGRADE |           1      0.95%      0.95% |          32     30.48%     31.43% |          21     20.00%     51.43% |           6      5.71%     57.14% |          13     12.38%     69.52% |          17     16.19%     85.71% |          13     12.38%     98.10% |           2      1.90%    100.00% (Unspecified)
board.cache_hierarchy.ruby_system.L2Cache_Controller.L1_UPGRADE::total          105                       (Unspecified)
board.cache_hierarchy.ruby_system.L2Cache_Controller.L1_PUTX |          15      6.73%      6.73% |          22      9.87%     16.59% |          31     13.90%     30.49% |          26     11.66%     42.15% |          39     17.49%     59.64% |          39     17.49%     77.13% |          31     13.90%     91.03% |          20      8.97%    100.00% (Unspecified)
board.cache_hierarchy.ruby_system.L2Cache_Controller.L1_PUTX::total          223                       (Unspecified)
board.cache_hierarchy.ruby_system.L2Cache_Controller.Mem_Data |          91     11.15%     11.15% |         100     12.25%     23.41% |          96     11.76%     35.17% |          92     11.27%     46.45% |         112     13.73%     60.17% |         118     14.46%     74.63% |         106     12.99%     87.62% |         101     12.38%    100.00% (Unspecified)
board.cache_hierarchy.ruby_system.L2Cache_Controller.Mem_Data::total          816                       (Unspecified)
board.cache_hierarchy.ruby_system.L2Cache_Controller.WB_Data |          46     10.27%     10.27% |          91     20.31%     30.58% |          68     15.18%     45.76% |          47     10.49%     56.25% |          50     11.16%     67.41% |          53     11.83%     79.24% |          49     10.94%     90.18% |          44      9.82%    100.00% (Unspecified)
board.cache_hierarchy.ruby_system.L2Cache_Controller.WB_Data::total          448                       (Unspecified)
board.cache_hierarchy.ruby_system.L2Cache_Controller.WB_Data_clean |           7     25.00%     25.00% |           1      3.57%     28.57% |           3     10.71%     39.29% |           8     28.57%     67.86% |           2      7.14%     75.00% |           2      7.14%     82.14% |           3     10.71%     92.86% |           2      7.14%    100.00% (Unspecified)
board.cache_hierarchy.ruby_system.L2Cache_Controller.WB_Data_clean::total           28                       (Unspecified)
board.cache_hierarchy.ruby_system.L2Cache_Controller.Unblock |          53     11.13%     11.13% |          92     19.33%     30.46% |          71     14.92%     45.38% |          55     11.55%     56.93% |          52     10.92%     67.86% |          55     11.55%     79.41% |          52     10.92%     90.34% |          46      9.66%    100.00% (Unspecified)
board.cache_hierarchy.ruby_system.L2Cache_Controller.Unblock::total          476                       (Unspecified)
board.cache_hierarchy.ruby_system.L2Cache_Controller.Exclusive_Unblock |       32940     93.77%     93.77% |         317      0.90%     94.67% |         309      0.88%     95.55% |         284      0.81%     96.36% |         332      0.95%     97.31% |         339      0.97%     98.27% |         313      0.89%     99.16% |         294      0.84%    100.00% (Unspecified)
board.cache_hierarchy.ruby_system.L2Cache_Controller.Exclusive_Unblock::total        35128                       (Unspecified)
board.cache_hierarchy.ruby_system.L2Cache_Controller.NP.L1_GET_INSTR |          43     11.44%     11.44% |          44     11.70%     23.14% |          45     11.97%     35.11% |          49     13.03%     48.14% |          51     13.56%     61.70% |          50     13.30%     75.00% |          49     13.03%     88.03% |          45     11.97%    100.00% (Unspecified)
board.cache_hierarchy.ruby_system.L2Cache_Controller.NP.L1_GET_INSTR::total          376                       (Unspecified)
board.cache_hierarchy.ruby_system.L2Cache_Controller.NP.L1_GETS |           0      0.00%      0.00% |          11     27.50%     27.50% |           2      5.00%     32.50% |           1      2.50%     35.00% |          11     27.50%     62.50% |           1      2.50%     65.00% |           5     12.50%     77.50% |           9     22.50%    100.00% (Unspecified)
board.cache_hierarchy.ruby_system.L2Cache_Controller.NP.L1_GETS::total           40                       (Unspecified)
board.cache_hierarchy.ruby_system.L2Cache_Controller.NP.L1_GETX |          48     12.00%     12.00% |          45     11.25%     23.25% |          49     12.25%     35.50% |          42     10.50%     46.00% |          50     12.50%     58.50% |          67     16.75%     75.25% |          52     13.00%     88.25% |          47     11.75%    100.00% (Unspecified)
board.cache_hierarchy.ruby_system.L2Cache_Controller.NP.L1_GETX::total          400                       (Unspecified)
board.cache_hierarchy.ruby_system.L2Cache_Controller.SS.L1_GET_INSTR |         172     12.93%     12.93% |         150     11.28%     24.21% |         146     10.98%     35.19% |         152     11.43%     46.62% |         170     12.78%     59.40% |         180     13.53%     72.93% |         201     15.11%     88.05% |         159     11.95%    100.00% (Unspecified)
board.cache_hierarchy.ruby_system.L2Cache_Controller.SS.L1_GET_INSTR::total         1330                       (Unspecified)
board.cache_hierarchy.ruby_system.L2Cache_Controller.SS.L1_GETS |          10      9.62%      9.62% |           8      7.69%     17.31% |          20     19.23%     36.54% |           7      6.73%     43.27% |          13     12.50%     55.77% |           6      5.77%     61.54% |          27     25.96%     87.50% |          13     12.50%    100.00% (Unspecified)
board.cache_hierarchy.ruby_system.L2Cache_Controller.SS.L1_GETS::total          104                       (Unspecified)
board.cache_hierarchy.ruby_system.L2Cache_Controller.SS.L1_GETX |           0      0.00%      0.00% |           0      0.00%      0.00% |           1    100.00%    100.00% |           0      0.00%    100.00% |           0      0.00%    100.00% |           0      0.00%    100.00% |           0      0.00%    100.00% |           0      0.00%    100.00% (Unspecified)
board.cache_hierarchy.ruby_system.L2Cache_Controller.SS.L1_GETX::total            1                       (Unspecified)
board.cache_hierarchy.ruby_system.L2Cache_Controller.SS.L1_UPGRADE |           1      0.95%      0.95% |          32     30.48%     31.43% |          21     20.00%     51.43% |           6      5.71%     57.14% |          13     12.38%     69.52% |          17     16.19%     85.71% |          13     12.38%     98.10% |           2      1.90%    100.00% (Unspecified)
board.cache_hierarchy.ruby_system.L2Cache_Controller.SS.L1_UPGRADE::total          105                       (Unspecified)
board.cache_hierarchy.ruby_system.L2Cache_Controller.M.L1_GET_INSTR |           0      0.00%      0.00% |           0      0.00%      0.00% |           0      0.00%      0.00% |           0      0.00%      0.00% |           0      0.00%      0.00% |           0      0.00%      0.00% |           1    100.00%    100.00% |           0      0.00%    100.00% (Unspecified)
board.cache_hierarchy.ruby_system.L2Cache_Controller.M.L1_GET_INSTR::total            1                       (Unspecified)
board.cache_hierarchy.ruby_system.L2Cache_Controller.M.L1_GETS |         218     12.02%     12.02% |         219     12.08%     24.10% |         228     12.58%     36.68% |         227     12.52%     49.20% |         232     12.80%     62.00% |         236     13.02%     75.01% |         231     12.74%     87.76% |         222     12.24%    100.00% (Unspecified)
board.cache_hierarchy.ruby_system.L2Cache_Controller.M.L1_GETS::total         1813                       (Unspecified)
board.cache_hierarchy.ruby_system.L2Cache_Controller.M.L1_GETX |           3     12.50%     12.50% |           2      8.33%     20.83% |           2      8.33%     29.17% |           3     12.50%     41.67% |          11     45.83%     87.50% |           0      0.00%     87.50% |           2      8.33%     95.83% |           1      4.17%    100.00% (Unspecified)
board.cache_hierarchy.ruby_system.L2Cache_Controller.M.L1_GETX::total           24                       (Unspecified)
board.cache_hierarchy.ruby_system.L2Cache_Controller.MT.L1_GETS |          53     11.13%     11.13% |          92     19.33%     30.46% |          71     14.92%     45.38% |          55     11.55%     56.93% |          52     10.92%     67.86% |          55     11.55%     79.41% |          52     10.92%     90.34% |          46      9.66%    100.00% (Unspecified)
board.cache_hierarchy.ruby_system.L2Cache_Controller.MT.L1_GETS::total          476                       (Unspecified)
board.cache_hierarchy.ruby_system.L2Cache_Controller.MT.L1_GETX |       32670     99.77%     99.77% |           8      0.02%     99.80% |           6      0.02%     99.81% |           5      0.02%     99.83% |          15      0.05%     99.87% |          18      0.05%     99.93% |          10      0.03%     99.96% |          13      0.04%    100.00% (Unspecified)
board.cache_hierarchy.ruby_system.L2Cache_Controller.MT.L1_GETX::total        32745                       (Unspecified)
board.cache_hierarchy.ruby_system.L2Cache_Controller.MT.L1_PUTX |          15      6.73%      6.73% |          22      9.87%     16.59% |          31     13.90%     30.49% |          26     11.66%     42.15% |          39     17.49%     59.64% |          39     17.49%     77.13% |          31     13.90%     91.03% |          20      8.97%    100.00% (Unspecified)
board.cache_hierarchy.ruby_system.L2Cache_Controller.MT.L1_PUTX::total          223                       (Unspecified)
board.cache_hierarchy.ruby_system.L2Cache_Controller.ISS.Mem_Data |           0      0.00%      0.00% |          11     27.50%     27.50% |           2      5.00%     32.50% |           1      2.50%     35.00% |          11     27.50%     62.50% |           1      2.50%     65.00% |           5     12.50%     77.50% |           9     22.50%    100.00% (Unspecified)
board.cache_hierarchy.ruby_system.L2Cache_Controller.ISS.Mem_Data::total           40                       (Unspecified)
board.cache_hierarchy.ruby_system.L2Cache_Controller.IS.L1_GET_INSTR |           0      0.00%      0.00% |           1     50.00%     50.00% |           0      0.00%     50.00% |           0      0.00%     50.00% |           0      0.00%     50.00% |           0      0.00%     50.00% |           1     50.00%    100.00% |           0      0.00%    100.00% (Unspecified)
board.cache_hierarchy.ruby_system.L2Cache_Controller.IS.L1_GET_INSTR::total            2                       (Unspecified)
board.cache_hierarchy.ruby_system.L2Cache_Controller.IS.Mem_Data |          43     11.44%     11.44% |          44     11.70%     23.14% |          45     11.97%     35.11% |          49     13.03%     48.14% |          51     13.56%     61.70% |          50     13.30%     75.00% |          49     13.03%     88.03% |          45     11.97%    100.00% (Unspecified)
board.cache_hierarchy.ruby_system.L2Cache_Controller.IS.Mem_Data::total          376                       (Unspecified)
board.cache_hierarchy.ruby_system.L2Cache_Controller.IM.Mem_Data |          48     12.00%     12.00% |          45     11.25%     23.25% |          49     12.25%     35.50% |          42     10.50%     46.00% |          50     12.50%     58.50% |          67     16.75%     75.25% |          52     13.00%     88.25% |          47     11.75%    100.00% (Unspecified)
board.cache_hierarchy.ruby_system.L2Cache_Controller.IM.Mem_Data::total          400                       (Unspecified)
board.cache_hierarchy.ruby_system.L2Cache_Controller.SS_MB.Exclusive_Unblock |           1      0.94%      0.94% |          32     30.19%     31.13% |          22     20.75%     51.89% |           6      5.66%     57.55% |          13     12.26%     69.81% |          17     16.04%     85.85% |          13     12.26%     98.11% |           2      1.89%    100.00% (Unspecified)
board.cache_hierarchy.ruby_system.L2Cache_Controller.SS_MB.Exclusive_Unblock::total          106                       (Unspecified)
board.cache_hierarchy.ruby_system.L2Cache_Controller.MT_MB.L1_GETX |      213432    100.00%    100.00% |           0      0.00%    100.00% |           0      0.00%    100.00% |           0      0.00%    100.00% |           0      0.00%    100.00% |           0      0.00%    100.00% |           0      0.00%    100.00% |           0      0.00%    100.00% (Unspecified)
board.cache_hierarchy.ruby_system.L2Cache_Controller.MT_MB.L1_GETX::total       213432                       (Unspecified)
board.cache_hierarchy.ruby_system.L2Cache_Controller.MT_MB.Exclusive_Unblock |       32939     94.05%     94.05% |         285      0.81%     94.87% |         287      0.82%     95.69% |         278      0.79%     96.48% |         319      0.91%     97.39% |         322      0.92%     98.31% |         300      0.86%     99.17% |         292      0.83%    100.00% (Unspecified)
board.cache_hierarchy.ruby_system.L2Cache_Controller.MT_MB.Exclusive_Unblock::total        35022                       (Unspecified)
board.cache_hierarchy.ruby_system.L2Cache_Controller.MT_IIB.WB_Data |          45     10.49%     10.49% |          78     18.18%     28.67% |          65     15.15%     43.82% |          47     10.96%     54.78% |          50     11.66%     66.43% |          53     12.35%     78.79% |          48     11.19%     89.98% |          43     10.02%    100.00% (Unspecified)
board.cache_hierarchy.ruby_system.L2Cache_Controller.MT_IIB.WB_Data::total          429                       (Unspecified)
board.cache_hierarchy.ruby_system.L2Cache_Controller.MT_IIB.WB_Data_clean |           7     31.82%     31.82% |           1      4.55%     36.36% |           3     13.64%     50.00% |           2      9.09%     59.09% |           2      9.09%     68.18% |           2      9.09%     77.27% |           3     13.64%     90.91% |           2      9.09%    100.00% (Unspecified)
board.cache_hierarchy.ruby_system.L2Cache_Controller.MT_IIB.WB_Data_clean::total           22                       (Unspecified)
board.cache_hierarchy.ruby_system.L2Cache_Controller.MT_IIB.Unblock |           1      4.00%      4.00% |          13     52.00%     56.00% |           3     12.00%     68.00% |           6     24.00%     92.00% |           0      0.00%     92.00% |           0      0.00%     92.00% |           1      4.00%     96.00% |           1      4.00%    100.00% (Unspecified)
board.cache_hierarchy.ruby_system.L2Cache_Controller.MT_IIB.Unblock::total           25                       (Unspecified)
board.cache_hierarchy.ruby_system.L2Cache_Controller.MT_IB.WB_Data |           1      5.26%      5.26% |          13     68.42%     73.68% |           3     15.79%     89.47% |           0      0.00%     89.47% |           0      0.00%     89.47% |           0      0.00%     89.47% |           1      5.26%     94.74% |           1      5.26%    100.00% (Unspecified)
board.cache_hierarchy.ruby_system.L2Cache_Controller.MT_IB.WB_Data::total           19                       (Unspecified)
board.cache_hierarchy.ruby_system.L2Cache_Controller.MT_IB.WB_Data_clean |           0      0.00%      0.00% |           0      0.00%      0.00% |           0      0.00%      0.00% |           6    100.00%    100.00% |           0      0.00%    100.00% |           0      0.00%    100.00% |           0      0.00%    100.00% |           0      0.00%    100.00% (Unspecified)
board.cache_hierarchy.ruby_system.L2Cache_Controller.MT_IB.WB_Data_clean::total            6                       (Unspecified)
board.cache_hierarchy.ruby_system.L2Cache_Controller.MT_SB.Unblock |          52     11.53%     11.53% |          79     17.52%     29.05% |          68     15.08%     44.12% |          49     10.86%     54.99% |          52     11.53%     66.52% |          55     12.20%     78.71% |          51     11.31%     90.02% |          45      9.98%    100.00% (Unspecified)
board.cache_hierarchy.ruby_system.L2Cache_Controller.MT_SB.Unblock::total          451                       (Unspecified)
board.cache_hierarchy.ruby_system.RequestType.LD.latency_hist_seqr::bucket_size           32                       (Unspecified)
board.cache_hierarchy.ruby_system.RequestType.LD.latency_hist_seqr::max_bucket          319                       (Unspecified)
board.cache_hierarchy.ruby_system.RequestType.LD.latency_hist_seqr::samples       273394                       (Unspecified)
board.cache_hierarchy.ruby_system.RequestType.LD.latency_hist_seqr::mean     1.486327                       (Unspecified)
board.cache_hierarchy.ruby_system.RequestType.LD.latency_hist_seqr::gmean     1.035505                       (Unspecified)
board.cache_hierarchy.ruby_system.RequestType.LD.latency_hist_seqr::stdev     5.697962                       (Unspecified)
board.cache_hierarchy.ruby_system.RequestType.LD.latency_hist_seqr |      271222     99.21%     99.21% |        2044      0.75%     99.95% |          88      0.03%     99.99% |           0      0.00%     99.99% |           1      0.00%     99.99% |           4      0.00%     99.99% |          18      0.01%     99.99% |          12      0.00%    100.00% |           4      0.00%    100.00% |           1      0.00%    100.00% (Unspecified)
board.cache_hierarchy.ruby_system.RequestType.LD.latency_hist_seqr::total       273394                       (Unspecified)
board.cache_hierarchy.ruby_system.RequestType.LD.hit_latency_hist_seqr::bucket_size            1                       (Unspecified)
board.cache_hierarchy.ruby_system.RequestType.LD.hit_latency_hist_seqr::max_bucket            9                       (Unspecified)
board.cache_hierarchy.ruby_system.RequestType.LD.hit_latency_hist_seqr::samples       270961                       (Unspecified)
board.cache_hierarchy.ruby_system.RequestType.LD.hit_latency_hist_seqr::mean     1.000015                       (Unspecified)
board.cache_hierarchy.ruby_system.RequestType.LD.hit_latency_hist_seqr::gmean     1.000010                       (Unspecified)
board.cache_hierarchy.ruby_system.RequestType.LD.hit_latency_hist_seqr::stdev     0.003842                       (Unspecified)
board.cache_hierarchy.ruby_system.RequestType.LD.hit_latency_hist_seqr |           0      0.00%      0.00% |      270957    100.00%    100.00% |           4      0.00%    100.00% |           0      0.00%    100.00% |           0      0.00%    100.00% |           0      0.00%    100.00% |           0      0.00%    100.00% |           0      0.00%    100.00% |           0      0.00%    100.00% |           0      0.00%    100.00% (Unspecified)
board.cache_hierarchy.ruby_system.RequestType.LD.hit_latency_hist_seqr::total       270961                       (Unspecified)
board.cache_hierarchy.ruby_system.RequestType.LD.miss_latency_hist_seqr::bucket_size           32                       (Unspecified)
board.cache_hierarchy.ruby_system.RequestType.LD.miss_latency_hist_seqr::max_bucket          319                       (Unspecified)
board.cache_hierarchy.ruby_system.RequestType.LD.miss_latency_hist_seqr::samples         2433                       (Unspecified)
board.cache_hierarchy.ruby_system.RequestType.LD.miss_latency_hist_seqr::mean    55.646527                       (Unspecified)
board.cache_hierarchy.ruby_system.RequestType.LD.miss_latency_hist_seqr::gmean    50.364852                       (Unspecified)
board.cache_hierarchy.ruby_system.RequestType.LD.miss_latency_hist_seqr::stdev    26.246225                       (Unspecified)
board.cache_hierarchy.ruby_system.RequestType.LD.miss_latency_hist_seqr |         261     10.73%     10.73% |        2044     84.01%     94.74% |          88      3.62%     98.36% |           0      0.00%     98.36% |           1      0.04%     98.40% |           4      0.16%     98.56% |          18      0.74%     99.30% |          12      0.49%     99.79% |           4      0.16%     99.96% |           1      0.04%    100.00% (Unspecified)
board.cache_hierarchy.ruby_system.RequestType.LD.miss_latency_hist_seqr::total         2433                       (Unspecified)
board.cache_hierarchy.ruby_system.RequestType.ST.latency_hist_seqr::bucket_size          256                       (Unspecified)
board.cache_hierarchy.ruby_system.RequestType.ST.latency_hist_seqr::max_bucket         2559                       (Unspecified)
board.cache_hierarchy.ruby_system.RequestType.ST.latency_hist_seqr::samples       178900                       (Unspecified)
board.cache_hierarchy.ruby_system.RequestType.ST.latency_hist_seqr::mean     1.502018                       (Unspecified)
board.cache_hierarchy.ruby_system.RequestType.ST.latency_hist_seqr::gmean     1.016171                       (Unspecified)
board.cache_hierarchy.ruby_system.RequestType.ST.latency_hist_seqr::stdev    10.813735                       (Unspecified)
board.cache_hierarchy.ruby_system.RequestType.ST.latency_hist_seqr |      178888     99.99%     99.99% |           8      0.00%    100.00% |           0      0.00%    100.00% |           0      0.00%    100.00% |           3      0.00%    100.00% |           1      0.00%    100.00% |           0      0.00%    100.00% |           0      0.00%    100.00% |           0      0.00%    100.00% |           0      0.00%    100.00% (Unspecified)
board.cache_hierarchy.ruby_system.RequestType.ST.latency_hist_seqr::total       178900                       (Unspecified)
board.cache_hierarchy.ruby_system.RequestType.ST.hit_latency_hist_seqr::bucket_size           32                       (Unspecified)
board.cache_hierarchy.ruby_system.RequestType.ST.hit_latency_hist_seqr::max_bucket          319                       (Unspecified)
board.cache_hierarchy.ruby_system.RequestType.ST.hit_latency_hist_seqr::samples       178363                       (Unspecified)
board.cache_hierarchy.ruby_system.RequestType.ST.hit_latency_hist_seqr::mean     1.004620                       (Unspecified)
board.cache_hierarchy.ruby_system.RequestType.ST.hit_latency_hist_seqr::gmean     1.001104                       (Unspecified)
board.cache_hierarchy.ruby_system.RequestType.ST.hit_latency_hist_seqr::stdev     0.718485                       (Unspecified)
board.cache_hierarchy.ruby_system.RequestType.ST.hit_latency_hist_seqr |      178359    100.00%    100.00% |           1      0.00%    100.00% |           0      0.00%    100.00% |           0      0.00%    100.00% |           1      0.00%    100.00% |           1      0.00%    100.00% |           1      0.00%    100.00% |           0      0.00%    100.00% |           0      0.00%    100.00% |           0      0.00%    100.00% (Unspecified)
board.cache_hierarchy.ruby_system.RequestType.ST.hit_latency_hist_seqr::total       178363                       (Unspecified)
board.cache_hierarchy.ruby_system.RequestType.ST.miss_latency_hist_seqr::bucket_size          256                       (Unspecified)
board.cache_hierarchy.ruby_system.RequestType.ST.miss_latency_hist_seqr::max_bucket         2559                       (Unspecified)
board.cache_hierarchy.ruby_system.RequestType.ST.miss_latency_hist_seqr::samples          537                       (Unspecified)
board.cache_hierarchy.ruby_system.RequestType.ST.miss_latency_hist_seqr::mean   166.711359                       (Unspecified)
board.cache_hierarchy.ruby_system.RequestType.ST.miss_latency_hist_seqr::gmean   145.130898                       (Unspecified)
board.cache_hierarchy.ruby_system.RequestType.ST.miss_latency_hist_seqr::stdev   106.913449                       (Unspecified)
board.cache_hierarchy.ruby_system.RequestType.ST.miss_latency_hist_seqr |         525     97.77%     97.77% |           8      1.49%     99.26% |           0      0.00%     99.26% |           0      0.00%     99.26% |           3      0.56%     99.81% |           1      0.19%    100.00% |           0      0.00%    100.00% |           0      0.00%    100.00% |           0      0.00%    100.00% |           0      0.00%    100.00% (Unspecified)
board.cache_hierarchy.ruby_system.RequestType.ST.miss_latency_hist_seqr::total          537                       (Unspecified)
board.cache_hierarchy.ruby_system.RequestType.IFETCH.latency_hist_seqr::bucket_size          128                       (Unspecified)
board.cache_hierarchy.ruby_system.RequestType.IFETCH.latency_hist_seqr::max_bucket         1279                       (Unspecified)
board.cache_hierarchy.ruby_system.RequestType.IFETCH.latency_hist_seqr::samples       509406                       (Unspecified)
board.cache_hierarchy.ruby_system.RequestType.IFETCH.latency_hist_seqr::mean     1.286114                       (Unspecified)
board.cache_hierarchy.ruby_system.RequestType.IFETCH.latency_hist_seqr::gmean     1.014053                       (Unspecified)
board.cache_hierarchy.ruby_system.RequestType.IFETCH.latency_hist_seqr::stdev     7.360526                       (Unspecified)
board.cache_hierarchy.ruby_system.RequestType.IFETCH.latency_hist_seqr |      509029     99.93%     99.93% |         357      0.07%    100.00% |          12      0.00%    100.00% |           0      0.00%    100.00% |           1      0.00%    100.00% |           0      0.00%    100.00% |           0      0.00%    100.00% |           0      0.00%    100.00% |           2      0.00%    100.00% |           5      0.00%    100.00% (Unspecified)
board.cache_hierarchy.ruby_system.RequestType.IFETCH.latency_hist_seqr::total       509406                       (Unspecified)
board.cache_hierarchy.ruby_system.RequestType.IFETCH.hit_latency_hist_seqr::bucket_size            1                       (Unspecified)
board.cache_hierarchy.ruby_system.RequestType.IFETCH.hit_latency_hist_seqr::max_bucket            9                       (Unspecified)
board.cache_hierarchy.ruby_system.RequestType.IFETCH.hit_latency_hist_seqr::samples       507697                       (Unspecified)
board.cache_hierarchy.ruby_system.RequestType.IFETCH.hit_latency_hist_seqr::mean            1                       (Unspecified)
board.cache_hierarchy.ruby_system.RequestType.IFETCH.hit_latency_hist_seqr::gmean            1                       (Unspecified)
board.cache_hierarchy.ruby_system.RequestType.IFETCH.hit_latency_hist_seqr |           0      0.00%      0.00% |      507697    100.00%    100.00% |           0      0.00%    100.00% |           0      0.00%    100.00% |           0      0.00%    100.00% |           0      0.00%    100.00% |           0      0.00%    100.00% |           0      0.00%    100.00% |           0      0.00%    100.00% |           0      0.00%    100.00% (Unspecified)
board.cache_hierarchy.ruby_system.RequestType.IFETCH.hit_latency_hist_seqr::total       507697                       (Unspecified)
board.cache_hierarchy.ruby_system.RequestType.IFETCH.miss_latency_hist_seqr::bucket_size          128                       (Unspecified)
board.cache_hierarchy.ruby_system.RequestType.IFETCH.miss_latency_hist_seqr::max_bucket         1279                       (Unspecified)
board.cache_hierarchy.ruby_system.RequestType.IFETCH.miss_latency_hist_seqr::samples         1709                       (Unspecified)
board.cache_hierarchy.ruby_system.RequestType.IFETCH.miss_latency_hist_seqr::mean    86.282621                       (Unspecified)
board.cache_hierarchy.ruby_system.RequestType.IFETCH.miss_latency_hist_seqr::gmean    64.042181                       (Unspecified)
board.cache_hierarchy.ruby_system.RequestType.IFETCH.miss_latency_hist_seqr::stdev    94.367538                       (Unspecified)
board.cache_hierarchy.ruby_system.RequestType.IFETCH.miss_latency_hist_seqr |        1332     77.94%     77.94% |         357     20.89%     98.83% |          12      0.70%     99.53% |           0      0.00%     99.53% |           1      0.06%     99.59% |           0      0.00%     99.59% |           0      0.00%     99.59% |           0      0.00%     99.59% |           2      0.12%     99.71% |           5      0.29%    100.00% (Unspecified)
board.cache_hierarchy.ruby_system.RequestType.IFETCH.miss_latency_hist_seqr::total         1709                       (Unspecified)
board.cache_hierarchy.ruby_system.RequestType.RMW_Read.latency_hist_seqr::bucket_size           32                       (Unspecified)
board.cache_hierarchy.ruby_system.RequestType.RMW_Read.latency_hist_seqr::max_bucket          319                       (Unspecified)
board.cache_hierarchy.ruby_system.RequestType.RMW_Read.latency_hist_seqr::samples        32990                       (Unspecified)
board.cache_hierarchy.ruby_system.RequestType.RMW_Read.latency_hist_seqr::mean     1.056714                       (Unspecified)
board.cache_hierarchy.ruby_system.RequestType.RMW_Read.latency_hist_seqr::gmean     1.002525                       (Unspecified)
board.cache_hierarchy.ruby_system.RequestType.RMW_Read.latency_hist_seqr::stdev     2.877688                       (Unspecified)
board.cache_hierarchy.ruby_system.RequestType.RMW_Read.latency_hist_seqr |       32974     99.95%     99.95% |           1      0.00%     99.95% |          10      0.03%     99.98% |           0      0.00%     99.98% |           0      0.00%     99.98% |           2      0.01%     99.99% |           2      0.01%    100.00% |           1      0.00%    100.00% |           0      0.00%    100.00% |           0      0.00%    100.00% (Unspecified)
board.cache_hierarchy.ruby_system.RequestType.RMW_Read.latency_hist_seqr::total        32990                       (Unspecified)
board.cache_hierarchy.ruby_system.RequestType.RMW_Read.hit_latency_hist_seqr::bucket_size            1                       (Unspecified)
board.cache_hierarchy.ruby_system.RequestType.RMW_Read.hit_latency_hist_seqr::max_bucket            9                       (Unspecified)
board.cache_hierarchy.ruby_system.RequestType.RMW_Read.hit_latency_hist_seqr::samples        32974                       (Unspecified)
board.cache_hierarchy.ruby_system.RequestType.RMW_Read.hit_latency_hist_seqr::mean     1.000394                       (Unspecified)
board.cache_hierarchy.ruby_system.RequestType.RMW_Read.hit_latency_hist_seqr::gmean     1.000273                       (Unspecified)
board.cache_hierarchy.ruby_system.RequestType.RMW_Read.hit_latency_hist_seqr::stdev     0.019852                       (Unspecified)
board.cache_hierarchy.ruby_system.RequestType.RMW_Read.hit_latency_hist_seqr |           0      0.00%      0.00% |       32961     99.96%     99.96% |          13      0.04%    100.00% |           0      0.00%    100.00% |           0      0.00%    100.00% |           0      0.00%    100.00% |           0      0.00%    100.00% |           0      0.00%    100.00% |           0      0.00%    100.00% |           0      0.00%    100.00% (Unspecified)
board.cache_hierarchy.ruby_system.RequestType.RMW_Read.hit_latency_hist_seqr::total        32974                       (Unspecified)
board.cache_hierarchy.ruby_system.RequestType.RMW_Read.miss_latency_hist_seqr::bucket_size           32                       (Unspecified)
board.cache_hierarchy.ruby_system.RequestType.RMW_Read.miss_latency_hist_seqr::max_bucket          319                       (Unspecified)
board.cache_hierarchy.ruby_system.RequestType.RMW_Read.miss_latency_hist_seqr::samples           16                       (Unspecified)
board.cache_hierarchy.ruby_system.RequestType.RMW_Read.miss_latency_hist_seqr::mean   117.125000                       (Unspecified)
board.cache_hierarchy.ruby_system.RequestType.RMW_Read.miss_latency_hist_seqr::gmean   103.179366                       (Unspecified)
board.cache_hierarchy.ruby_system.RequestType.RMW_Read.miss_latency_hist_seqr::stdev    61.923474                       (Unspecified)
board.cache_hierarchy.ruby_system.RequestType.RMW_Read.miss_latency_hist_seqr |           0      0.00%      0.00% |           1      6.25%      6.25% |          10     62.50%     68.75% |           0      0.00%     68.75% |           0      0.00%     68.75% |           2     12.50%     81.25% |           2     12.50%     93.75% |           1      6.25%    100.00% |           0      0.00%    100.00% |           0      0.00%    100.00% (Unspecified)
board.cache_hierarchy.ruby_system.RequestType.RMW_Read.miss_latency_hist_seqr::total           16                       (Unspecified)
board.cache_hierarchy.ruby_system.RequestType.Locked_RMW_Read.latency_hist_seqr::bucket_size           64                       (Unspecified)
board.cache_hierarchy.ruby_system.RequestType.Locked_RMW_Read.latency_hist_seqr::max_bucket          639                       (Unspecified)
board.cache_hierarchy.ruby_system.RequestType.Locked_RMW_Read.latency_hist_seqr::samples        33152                       (Unspecified)
board.cache_hierarchy.ruby_system.RequestType.Locked_RMW_Read.latency_hist_seqr::mean   532.034357                       (Unspecified)
board.cache_hierarchy.ruby_system.RequestType.Locked_RMW_Read.latency_hist_seqr::gmean   489.179105                       (Unspecified)
board.cache_hierarchy.ruby_system.RequestType.Locked_RMW_Read.latency_hist_seqr::stdev    87.355495                       (Unspecified)
board.cache_hierarchy.ruby_system.RequestType.Locked_RMW_Read.latency_hist_seqr |         468      1.41%      1.41% |         220      0.66%      2.08% |         158      0.48%      2.55% |         111      0.33%      2.89% |         202      0.61%      3.50% |         203      0.61%      4.11% |         519      1.57%      5.67% |        1797      5.42%     11.09% |       29473     88.90%    100.00% |           1      0.00%    100.00% (Unspecified)
board.cache_hierarchy.ruby_system.RequestType.Locked_RMW_Read.latency_hist_seqr::total        33152                       (Unspecified)
board.cache_hierarchy.ruby_system.RequestType.Locked_RMW_Read.hit_latency_hist_seqr::bucket_size            1                       (Unspecified)
board.cache_hierarchy.ruby_system.RequestType.Locked_RMW_Read.hit_latency_hist_seqr::max_bucket            9                       (Unspecified)
board.cache_hierarchy.ruby_system.RequestType.Locked_RMW_Read.hit_latency_hist_seqr::samples          430                       (Unspecified)
board.cache_hierarchy.ruby_system.RequestType.Locked_RMW_Read.hit_latency_hist_seqr::mean            1                       (Unspecified)
board.cache_hierarchy.ruby_system.RequestType.Locked_RMW_Read.hit_latency_hist_seqr::gmean            1                       (Unspecified)
board.cache_hierarchy.ruby_system.RequestType.Locked_RMW_Read.hit_latency_hist_seqr |           0      0.00%      0.00% |         430    100.00%    100.00% |           0      0.00%    100.00% |           0      0.00%    100.00% |           0      0.00%    100.00% |           0      0.00%    100.00% |           0      0.00%    100.00% |           0      0.00%    100.00% |           0      0.00%    100.00% |           0      0.00%    100.00% (Unspecified)
board.cache_hierarchy.ruby_system.RequestType.Locked_RMW_Read.hit_latency_hist_seqr::total          430                       (Unspecified)
board.cache_hierarchy.ruby_system.RequestType.Locked_RMW_Read.miss_latency_hist_seqr::bucket_size           64                       (Unspecified)
board.cache_hierarchy.ruby_system.RequestType.Locked_RMW_Read.miss_latency_hist_seqr::max_bucket          639                       (Unspecified)
board.cache_hierarchy.ruby_system.RequestType.Locked_RMW_Read.miss_latency_hist_seqr::samples        32722                       (Unspecified)
board.cache_hierarchy.ruby_system.RequestType.Locked_RMW_Read.miss_latency_hist_seqr::mean   539.012683                       (Unspecified)
board.cache_hierarchy.ruby_system.RequestType.Locked_RMW_Read.miss_latency_hist_seqr::gmean   530.652497                       (Unspecified)
board.cache_hierarchy.ruby_system.RequestType.Locked_RMW_Read.miss_latency_hist_seqr::stdev    63.061255                       (Unspecified)
board.cache_hierarchy.ruby_system.RequestType.Locked_RMW_Read.miss_latency_hist_seqr |          38      0.12%      0.12% |         220      0.67%      0.79% |         158      0.48%      1.27% |         111      0.34%      1.61% |         202      0.62%      2.23% |         203      0.62%      2.85% |         519      1.59%      4.43% |        1797      5.49%      9.93% |       29473     90.07%    100.00% |           1      0.00%    100.00% (Unspecified)
board.cache_hierarchy.ruby_system.RequestType.Locked_RMW_Read.miss_latency_hist_seqr::total        32722                       (Unspecified)
board.cache_hierarchy.ruby_system.RequestType.Locked_RMW_Write.latency_hist_seqr::bucket_size            1                       (Unspecified)
board.cache_hierarchy.ruby_system.RequestType.Locked_RMW_Write.latency_hist_seqr::max_bucket            9                       (Unspecified)
board.cache_hierarchy.ruby_system.RequestType.Locked_RMW_Write.latency_hist_seqr::samples        33152                       (Unspecified)
board.cache_hierarchy.ruby_system.RequestType.Locked_RMW_Write.latency_hist_seqr::mean            1                       (Unspecified)
board.cache_hierarchy.ruby_system.RequestType.Locked_RMW_Write.latency_hist_seqr::gmean            1                       (Unspecified)
board.cache_hierarchy.ruby_system.RequestType.Locked_RMW_Write.latency_hist_seqr |           0      0.00%      0.00% |       33152    100.00%    100.00% |           0      0.00%    100.00% |           0      0.00%    100.00% |           0      0.00%    100.00% |           0      0.00%    100.00% |           0      0.00%    100.00% |           0      0.00%    100.00% |           0      0.00%    100.00% |           0      0.00%    100.00% (Unspecified)
board.cache_hierarchy.ruby_system.RequestType.Locked_RMW_Write.latency_hist_seqr::total        33152                       (Unspecified)
board.cache_hierarchy.ruby_system.RequestType.Locked_RMW_Write.hit_latency_hist_seqr::bucket_size            1                       (Unspecified)
board.cache_hierarchy.ruby_system.RequestType.Locked_RMW_Write.hit_latency_hist_seqr::max_bucket            9                       (Unspecified)
board.cache_hierarchy.ruby_system.RequestType.Locked_RMW_Write.hit_latency_hist_seqr::samples        33152                       (Unspecified)
board.cache_hierarchy.ruby_system.RequestType.Locked_RMW_Write.hit_latency_hist_seqr::mean            1                       (Unspecified)
board.cache_hierarchy.ruby_system.RequestType.Locked_RMW_Write.hit_latency_hist_seqr::gmean            1                       (Unspecified)
board.cache_hierarchy.ruby_system.RequestType.Locked_RMW_Write.hit_latency_hist_seqr |           0      0.00%      0.00% |       33152    100.00%    100.00% |           0      0.00%    100.00% |           0      0.00%    100.00% |           0      0.00%    100.00% |           0      0.00%    100.00% |           0      0.00%    100.00% |           0      0.00%    100.00% |           0      0.00%    100.00% |           0      0.00%    100.00% (Unspecified)
board.cache_hierarchy.ruby_system.RequestType.Locked_RMW_Write.hit_latency_hist_seqr::total        33152                       (Unspecified)
board.cache_hierarchy.ruby_system.directory_controllers.power_state.pwrStateResidencyTicks::UNDEFINED   1138874985                       # Cumulative time (in ticks) in various power states (Tick)
board.cache_hierarchy.ruby_system.directory_controllers.requestToDir.m_msg_count          816                       # Number of messages passed the buffer (Count)
board.cache_hierarchy.ruby_system.directory_controllers.requestToDir.m_buf_msgs     0.000309                       # Average number of messages in buffer ((Count/Tick))
board.cache_hierarchy.ruby_system.directory_controllers.requestToMemory.m_msg_count          816                       # Number of messages passed the buffer (Count)
board.cache_hierarchy.ruby_system.directory_controllers.requestToMemory.m_buf_msgs     0.000310                       # Average number of messages in buffer ((Count/Tick))
board.cache_hierarchy.ruby_system.directory_controllers.requestToMemory.m_stall_time          999                       # Total number of ticks messages were stalled in this buffer (Tick)
board.cache_hierarchy.ruby_system.directory_controllers.requestToMemory.m_avg_stall_time     1.224265                       # Average stall ticks per message ((Tick/Count))
board.cache_hierarchy.ruby_system.directory_controllers.responseFromDir.m_msg_count          816                       # Number of messages passed the buffer (Count)
board.cache_hierarchy.ruby_system.directory_controllers.responseFromDir.m_buf_msgs     0.000309                       # Average number of messages in buffer ((Count/Tick))
board.cache_hierarchy.ruby_system.directory_controllers.responseFromMemory.m_msg_count          816                       # Number of messages passed the buffer (Count)
board.cache_hierarchy.ruby_system.directory_controllers.responseFromMemory.m_buf_msgs     0.000460                       # Average number of messages in buffer ((Count/Tick))
board.cache_hierarchy.ruby_system.l1_controllers0.fullyBusyCycles           59                       # cycles for which number of transistions == max transitions (Unspecified)
board.cache_hierarchy.ruby_system.l1_controllers0.delayHistogram::samples         1340                       # delay_histogram (Unspecified)
board.cache_hierarchy.ruby_system.l1_controllers0.delayHistogram::mean     0.097015                       # delay_histogram (Unspecified)
board.cache_hierarchy.ruby_system.l1_controllers0.delayHistogram::stdev     0.795520                       # delay_histogram (Unspecified)
board.cache_hierarchy.ruby_system.l1_controllers0.delayHistogram::0-1         1316     98.21%     98.21% # delay_histogram (Unspecified)
board.cache_hierarchy.ruby_system.l1_controllers0.delayHistogram::2-3            6      0.45%     98.66% # delay_histogram (Unspecified)
board.cache_hierarchy.ruby_system.l1_controllers0.delayHistogram::4-5            4      0.30%     98.96% # delay_histogram (Unspecified)
board.cache_hierarchy.ruby_system.l1_controllers0.delayHistogram::6-7            7      0.52%     99.48% # delay_histogram (Unspecified)
board.cache_hierarchy.ruby_system.l1_controllers0.delayHistogram::8-9            5      0.37%     99.85% # delay_histogram (Unspecified)
board.cache_hierarchy.ruby_system.l1_controllers0.delayHistogram::10-11            2      0.15%    100.00% # delay_histogram (Unspecified)
board.cache_hierarchy.ruby_system.l1_controllers0.delayHistogram::total         1340                       # delay_histogram (Unspecified)
board.cache_hierarchy.ruby_system.l1_controllers0.L1Dcache.m_demand_hits        17906                       # Number of cache demand hits (Unspecified)
board.cache_hierarchy.ruby_system.l1_controllers0.L1Dcache.m_demand_misses          328                       # Number of cache demand misses (Unspecified)
board.cache_hierarchy.ruby_system.l1_controllers0.L1Dcache.m_demand_accesses        18234                       # Number of cache demand accesses (Unspecified)
board.cache_hierarchy.ruby_system.l1_controllers0.L1Icache.m_demand_hits        11257                       # Number of cache demand hits (Unspecified)
board.cache_hierarchy.ruby_system.l1_controllers0.L1Icache.m_demand_misses          329                       # Number of cache demand misses (Unspecified)
board.cache_hierarchy.ruby_system.l1_controllers0.L1Icache.m_demand_accesses        11586                       # Number of cache demand accesses (Unspecified)
board.cache_hierarchy.ruby_system.l1_controllers0.mandatoryQueue.m_msg_count        29820                       # Number of messages passed the buffer (Count)
board.cache_hierarchy.ruby_system.l1_controllers0.mandatoryQueue.m_buf_msgs     0.011299                       # Average number of messages in buffer ((Count/Tick))
[...]
board.processor.cores8.core.executeStats0.numStoreInsts        33587                       # Number of stores executed (Count)
board.processor.cores8.core.executeStats0.instRate     0.168997                       # Inst execution rate ((Count/Cycle))
board.processor.cores8.core.executeStats0.numCCRegReads        64478                       # Number of times the CC registers were read (Count)
board.processor.cores8.core.executeStats0.numCCRegWrites        92152                       # Number of times the CC registers were written (Count)
board.processor.cores8.core.executeStats0.numFpRegReads          664                       # Number of times the floating registers were read (Count)
board.processor.cores8.core.executeStats0.numFpRegWrites          399                       # Number of times the floating registers were written (Count)
board.processor.cores8.core.executeStats0.numIntRegReads       454010                       # Number of times the integer registers were read (Count)
board.processor.cores8.core.executeStats0.numIntRegWrites       345052                       # Number of times the integer registers were written (Count)
board.processor.cores8.core.executeStats0.numMemRefs       136819                       # Number of memory refs (Count)
board.processor.cores8.core.executeStats0.numMiscRegReads       195838                       # Number of times the Misc registers were read (Count)
board.processor.cores8.core.executeStats0.numMiscRegWrites            1                       # Number of times the Misc registers were written (Count)
board.processor.cores8.core.executeStats0.numVecAluAccesses            0                       # Number of vector alu accesses (Count)
board.processor.cores8.core.executeStats0.numDiscardedOps            0                       # Number of ops (including micro ops) which were discarded before commit (Count)
board.processor.cores8.core.fetch.predictedBranches        37540                       # Number of branches that fetch has predicted taken (Count)
board.processor.cores8.core.fetch.cycles      2469653                       # Number of cycles fetch has run and was not squashing or blocked (Cycle)
board.processor.cores8.core.fetch.squashCycles         8746                       # Number of cycles fetch has spent squashing (Cycle)
board.processor.cores8.core.fetch.miscStallCycles           30                       # Number of cycles fetch has spent waiting on interrupts, or bad addresses, or out of MSHRs (Cycle)
board.processor.cores8.core.fetch.pendingTrapStallCycles          173                       # Number of stall cycles due to pending traps (Cycle)
board.processor.cores8.core.fetch.cacheLines        62320                       # Number of cache lines fetched (Count)
board.processor.cores8.core.fetch.icacheSquashes          124                       # Number of outstanding Icache misses that were squashed (Count)
board.processor.cores8.core.fetch.nisnDist::samples      2541212                       # Number of instructions fetched each cycle (Total) (Count)
board.processor.cores8.core.fetch.nisnDist::mean     0.320632                       # Number of instructions fetched each cycle (Total) (Count)
board.processor.cores8.core.fetch.nisnDist::stdev     1.470320                       # Number of instructions fetched each cycle (Total) (Count)
board.processor.cores8.core.fetch.nisnDist::underflows            0      0.00%      0.00% # Number of instructions fetched each cycle (Total) (Count)
board.processor.cores8.core.fetch.nisnDist::0      2408274     94.77%     94.77% # Number of instructions fetched each cycle (Total) (Count)
board.processor.cores8.core.fetch.nisnDist::1           96      0.00%     94.77% # Number of instructions fetched each cycle (Total) (Count)
board.processor.cores8.core.fetch.nisnDist::2        20539      0.81%     95.58% # Number of instructions fetched each cycle (Total) (Count)
board.processor.cores8.core.fetch.nisnDist::3          146      0.01%     95.59% # Number of instructions fetched each cycle (Total) (Count)
board.processor.cores8.core.fetch.nisnDist::4        28760      1.13%     96.72% # Number of instructions fetched each cycle (Total) (Count)
board.processor.cores8.core.fetch.nisnDist::5          149      0.01%     96.72% # Number of instructions fetched each cycle (Total) (Count)
board.processor.cores8.core.fetch.nisnDist::6         4206      0.17%     96.89% # Number of instructions fetched each cycle (Total) (Count)
board.processor.cores8.core.fetch.nisnDist::7          174      0.01%     96.90% # Number of instructions fetched each cycle (Total) (Count)
board.processor.cores8.core.fetch.nisnDist::8        78868      3.10%    100.00% # Number of instructions fetched each cycle (Total) (Count)
board.processor.cores8.core.fetch.nisnDist::overflows            0      0.00%    100.00% # Number of instructions fetched each cycle (Total) (Count)
board.processor.cores8.core.fetch.nisnDist::min_value            0                       # Number of instructions fetched each cycle (Total) (Count)
board.processor.cores8.core.fetch.nisnDist::max_value            8                       # Number of instructions fetched each cycle (Total) (Count)
board.processor.cores8.core.fetch.nisnDist::total      2541212                       # Number of instructions fetched each cycle (Total) (Count)
board.processor.cores8.core.fetchStats0.numInsts       464512                       # Number of instructions fetched (thread level) (Count)
board.processor.cores8.core.fetchStats0.numOps            0                       # Number of ops (including micro ops) fetched (thread level) (Count)
board.processor.cores8.core.fetchStats0.fetchRate     0.182610                       # Number of inst fetches per cycle ((Count/Cycle))
board.processor.cores8.core.fetchStats0.numBranches        54559                       # Number of branches fetched (Count)
board.processor.cores8.core.fetchStats0.branchRate     0.021448                       # Number of branch fetches per cycle (Ratio)
board.processor.cores8.core.fetchStats0.icacheStallCycles        66983                       # ICache total stall cycles (Cycle)
board.processor.cores8.core.fetchStats0.numFetchSuspends            0                       # Number of times Execute suspended instruction fetching (Count)
board.processor.cores8.core.iew.idleCycles            0                       # Number of cycles IEW is idle (Cycle)
board.processor.cores8.core.iew.squashCycles         4250                       # Number of cycles IEW is squashing (Cycle)
board.processor.cores8.core.iew.blockCycles      2302530                       # Number of cycles IEW is blocking (Cycle)
board.processor.cores8.core.iew.unblockCycles         9983                       # Number of cycles IEW is unblocking (Cycle)
board.processor.cores8.core.iew.dispatchedInsts       615585                       # Number of instructions dispatched to IQ (Count)
board.processor.cores8.core.iew.dispSquashedInsts           16                       # Number of squashed instructions skipped by dispatch (Count)
board.processor.cores8.core.iew.dispLoadInsts       160836                       # Number of dispatched load instructions (Count)
board.processor.cores8.core.iew.dispStoreInsts        50097                       # Number of dispatched store instructions (Count)
board.processor.cores8.core.iew.dispNonSpecInsts         8237                       # Number of dispatched non-speculative instructions (Count)
board.processor.cores8.core.iew.iqFullEvents          806                       # Number of times the IQ has become full, causing a stall (Count)
board.processor.cores8.core.iew.lsqFullEvents          987                       # Number of times the LSQ has become full, causing a stall (Count)
board.processor.cores8.core.iew.memOrderViolationEvents         4102                       # Number of memory order violations (Count)
board.processor.cores8.core.iew.predictedTakenIncorrect            8                       # Number of branches that were predicted taken incorrectly (Count)
board.processor.cores8.core.iew.predictedNotTakenIncorrect          146                       # Number of branches that were predicted not taken incorrectly (Count)
board.processor.cores8.core.iew.branchMispredicts          154                       # Number of branch mispredicts detected at execute (Count)
board.processor.cores8.core.iew.instsToCommit       429840                       # Cumulative count of insts sent to commit (Count)
board.processor.cores8.core.iew.writebackCount       429708                       # Cumulative count of insts written-back (Count)
board.processor.cores8.core.iew.producerInst       311864                       # Number of instructions producing a value (Count)
board.processor.cores8.core.iew.consumerInst       440849                       # Number of instructions consuming a value (Count)
board.processor.cores8.core.iew.wbRate       0.168928                       # Insts written-back per cycle ((Count/Cycle))
board.processor.cores8.core.iew.wbFanout     0.707417                       # Average fanout of values written-back ((Count/Count))
board.processor.cores8.core.interrupts.clk_domain.clock         5328                       # Clock period in ticks (Tick)
board.processor.cores8.core.lsq0.forwLoads         8389                       # Number of loads that had data forwarded from stores (Count)
board.processor.cores8.core.lsq0.squashedLoads        98791                       # Number of loads squashed (Count)
board.processor.cores8.core.lsq0.ignoredResponses            0                       # Number of memory responses ignored because the instruction is squashed (Count)
board.processor.cores8.core.lsq0.memOrderViolation         4102                       # Number of memory ordering violations (Count)
board.processor.cores8.core.lsq0.squashedStores        24792                       # Number of stores squashed (Count)
board.processor.cores8.core.lsq0.rescheduledLoads            0                       # Number of loads that were rescheduled (Count)
board.processor.cores8.core.lsq0.blockedByCache            0                       # Number of times an access to memory failed due to the cache being blocked (Count)
board.processor.cores8.core.lsq0.loadToUse::samples        62045                       # Distribution of cycle latency between the first time a load is issued and its completion (Unspecified)
board.processor.cores8.core.lsq0.loadToUse::mean    38.686196                       # Distribution of cycle latency between the first time a load is issued and its completion (Unspecified)
board.processor.cores8.core.lsq0.loadToUse::stdev   134.637242                       # Distribution of cycle latency between the first time a load is issued and its completion (Unspecified)
board.processor.cores8.core.lsq0.loadToUse::0-9        57672     92.95%     92.95% # Distribution of cycle latency between the first time a load is issued and its completion (Unspecified)
board.processor.cores8.core.lsq0.loadToUse::10-19            5      0.01%     92.96% # Distribution of cycle latency between the first time a load is issued and its completion (Unspecified)
board.processor.cores8.core.lsq0.loadToUse::40-49           29      0.05%     93.01% # Distribution of cycle latency between the first time a load is issued and its completion (Unspecified)
board.processor.cores8.core.lsq0.loadToUse::50-59           43      0.07%     93.08% # Distribution of cycle latency between the first time a load is issued and its completion (Unspecified)
board.processor.cores8.core.lsq0.loadToUse::60-69          203      0.33%     93.40% # Distribution of cycle latency between the first time a load is issued and its completion (Unspecified)
board.processor.cores8.core.lsq0.loadToUse::80-89           10      0.02%     93.42% # Distribution of cycle latency between the first time a load is issued and its completion (Unspecified)
board.processor.cores8.core.lsq0.loadToUse::90-99            8      0.01%     93.43% # Distribution of cycle latency between the first time a load is issued and its completion (Unspecified)
board.processor.cores8.core.lsq0.loadToUse::100-109            1      0.00%     93.43% # Distribution of cycle latency between the first time a load is issued and its completion (Unspecified)
board.processor.cores8.core.lsq0.loadToUse::110-119            1      0.00%     93.44% # Distribution of cycle latency between the first time a load is issued and its completion (Unspecified)
board.processor.cores8.core.lsq0.loadToUse::120-129            1      0.00%     93.44% # Distribution of cycle latency between the first time a load is issued and its completion (Unspecified)
board.processor.cores8.core.lsq0.loadToUse::150-159            1      0.00%     93.44% # Distribution of cycle latency between the first time a load is issued and its completion (Unspecified)
board.processor.cores8.core.lsq0.loadToUse::180-189           19      0.03%     93.47% # Distribution of cycle latency between the first time a load is issued and its completion (Unspecified)
board.processor.cores8.core.lsq0.loadToUse::200-209            1      0.00%     93.47% # Distribution of cycle latency between the first time a load is issued and its completion (Unspecified)
board.processor.cores8.core.lsq0.loadToUse::210-219            2      0.00%     93.47% # Distribution of cycle latency between the first time a load is issued and its completion (Unspecified)
board.processor.cores8.core.lsq0.loadToUse::240-249            1      0.00%     93.48% # Distribution of cycle latency between the first time a load is issued and its completion (Unspecified)
board.processor.cores8.core.lsq0.loadToUse::260-269           25      0.04%     93.52% # Distribution of cycle latency between the first time a load is issued and its completion (Unspecified)
board.processor.cores8.core.lsq0.loadToUse::290-299            2      0.00%     93.52% # Distribution of cycle latency between the first time a load is issued and its completion (Unspecified)
board.processor.cores8.core.lsq0.loadToUse::overflows         4021      6.48%    100.00% # Distribution of cycle latency between the first time a load is issued and its completion (Unspecified)
board.processor.cores8.core.lsq0.loadToUse::min_value            2                       # Distribution of cycle latency between the first time a load is issued and its completion (Unspecified)
board.processor.cores8.core.lsq0.loadToUse::max_value          557                       # Distribution of cycle latency between the first time a load is issued and its completion (Unspecified)
board.processor.cores8.core.lsq0.loadToUse::total        62045                       # Distribution of cycle latency between the first time a load is issued and its completion (Unspecified)
board.processor.cores8.core.mmu.dtb.rdAccesses       103232                       # TLB accesses on read requests (Count)
board.processor.cores8.core.mmu.dtb.wrAccesses        33587                       # TLB accesses on write requests (Count)
board.processor.cores8.core.mmu.dtb.rdMisses           66                       # TLB misses on read requests (Count)
board.processor.cores8.core.mmu.dtb.wrMisses           17                       # TLB misses on write requests (Count)
board.processor.cores8.core.mmu.dtb.walker.power_state.pwrStateResidencyTicks::UNDEFINED   1138874985                       # Cumulative time (in ticks) in various power states (Tick)
board.processor.cores8.core.mmu.itb.rdAccesses            0                       # TLB accesses on read requests (Count)
board.processor.cores8.core.mmu.itb.wrAccesses        62350                       # TLB accesses on write requests (Count)
board.processor.cores8.core.mmu.itb.rdMisses            0                       # TLB misses on read requests (Count)
board.processor.cores8.core.mmu.itb.wrMisses           81                       # TLB misses on write requests (Count)
board.processor.cores8.core.mmu.itb.walker.power_state.pwrStateResidencyTicks::UNDEFINED   1138874985                       # Cumulative time (in ticks) in various power states (Tick)
board.processor.cores8.core.power_state.pwrStateResidencyTicks::ON   1138874985                       # Cumulative time (in ticks) in various power states (Tick)
board.processor.cores8.core.rename.squashCycles         4250                       # Number of cycles rename is squashing (Cycle)
board.processor.cores8.core.rename.idleCycles        42407                       # Number of cycles rename is idle (Cycle)
board.processor.cores8.core.rename.blockCycles      2350120                       # Number of cycles rename is blocking (Cycle)
board.processor.cores8.core.rename.serializeStallCycles            0                       # count of cycles rename stalled for serializing inst (Cycle)
board.processor.cores8.core.rename.runCycles        78968                       # Number of cycles rename is running (Cycle)
board.processor.cores8.core.rename.unblockCycles        65467                       # Number of cycles rename is unblocking (Cycle)
board.processor.cores8.core.rename.renamedInsts       648891                       # Number of instructions processed by rename (Count)
board.processor.cores8.core.rename.ROBFullEvents            4                       # Number of times rename has blocked due to ROB full (Count)
board.processor.cores8.core.rename.IQFullEvents        52831                       # Number of times rename has blocked due to IQ full (Count)
board.processor.cores8.core.rename.LQFullEvents           65                       # Number of times rename has blocked due to LQ full (Count)
board.processor.cores8.core.rename.SQFullEvents         8167                       # Number of times rename has blocked due to SQ full (Count)
board.processor.cores8.core.rename.renamedOperands       927741                       # Number of destination operands rename has renamed (Count)
board.processor.cores8.core.rename.lookups      1921905                       # Number of register rename lookups that rename has made (Count)
board.processor.cores8.core.rename.intLookups       743078                       # Number of integer rename lookups (Count)
board.processor.cores8.core.rename.fpLookups          669                       # Number of floating rename lookups (Count)
board.processor.cores8.core.rename.committedMaps       356874                       # Number of HB maps that are committed (Count)
board.processor.cores8.core.rename.undoneMaps       570867                       # Number of HB maps that are undone due to squashing (Count)
board.processor.cores8.core.rename.serializing            0                       # count of serializing insts renamed (Count)
board.processor.cores8.core.rename.tempSerializing            0                       # count of temporary serializing insts renamed (Count)
board.processor.cores8.core.rename.skidInsts       125741                       # count of insts added to the skid buffer (Count)
board.processor.cores8.core.rob.reads         3102568                       # The number of ROB reads (Count)
board.processor.cores8.core.rob.writes        1276373                       # The number of ROB writes (Count)
board.processor.cores8.core.thread_0.numInsts       142171                       # Number of Instructions committed (Count)
board.processor.cores8.core.thread_0.numOps       251676                       # Number of Ops committed (Count)
board.processor.cores8.core.thread_0.numMemRefs            0                       # Number of Memory References (Count)
board.workload.inst.arm                             0                       # number of arm instructions executed (Count)
board.workload.inst.quiesce                         0                       # number of quiesce instructions executed (Count)

---------- End Simulation Statistics   ----------
