
---------- Begin Simulation Statistics ----------
simSeconds                                   0.000814                       # Number of seconds simulated (Second)
simTicks                                    814442409                       # Number of ticks simulated (Tick)
finalTick                                  1070493768                       # Number of ticks from beginning of simulation (restored from checkpoints and never reset) (Tick)
simFreq                                  1000000000000                       # The number of ticks per simulated second ((Tick/Second))
hostSeconds                                     21.56                       # Real time elapsed on the host (Second)
hostTickRate                                 37772456                       # The number of ticks simulated per host second (ticks/s) ((Tick/Second))
hostMemory                                    1547408                       # Number of bytes of host memory used (Byte)
simInsts                                      1670671                       # Number of instructions simulated (Count)
simOps                                        2812280                       # Number of ops (including micro ops) simulated (Count)
hostInstRate                                    77482                       # Simulator instruction rate (inst/s) ((Count/Second))
hostOpRate                                     130428                       # Simulator op (including micro ops) rate (op/s) ((Count/Second))
board.cache_hierarchy.ruby_system.delayHistogram::bucket_size           32                       # delay histogram for all message (Unspecified)
board.cache_hierarchy.ruby_system.delayHistogram::max_bucket          319                       # delay histogram for all message (Unspecified)
board.cache_hierarchy.ruby_system.delayHistogram::samples       142934                       # delay histogram for all message (Unspecified)
board.cache_hierarchy.ruby_system.delayHistogram::mean    46.906481                       # delay histogram for all message (Unspecified)
board.cache_hierarchy.ruby_system.delayHistogram::stdev    88.546589                       # delay histogram for all message (Unspecified)
board.cache_hierarchy.ruby_system.delayHistogram |      110618     77.39%     77.39% |          55      0.04%     77.43% |         812      0.57%     78.00% |         680      0.48%     78.47% |         495      0.35%     78.82% |        7545      5.28%     84.10% |       15233     10.66%     94.76% |        7495      5.24%    100.00% |           1      0.00%    100.00% |           0      0.00%    100.00% # delay histogram for all message (Unspecified)
board.cache_hierarchy.ruby_system.delayHistogram::total       142934                       # delay histogram for all message (Unspecified)
board.cache_hierarchy.ruby_system.m_outstandReqHistSeqr::bucket_size            2                       (Unspecified)
board.cache_hierarchy.ruby_system.m_outstandReqHistSeqr::max_bucket           19                       (Unspecified)
board.cache_hierarchy.ruby_system.m_outstandReqHistSeqr::samples      1170075                       (Unspecified)
board.cache_hierarchy.ruby_system.m_outstandReqHistSeqr::mean     1.109817                       (Unspecified)
board.cache_hierarchy.ruby_system.m_outstandReqHistSeqr::gmean     1.076365                       (Unspecified)
board.cache_hierarchy.ruby_system.m_outstandReqHistSeqr::stdev     0.360090                       (Unspecified)
board.cache_hierarchy.ruby_system.m_outstandReqHistSeqr |     1049507     89.70%     89.70% |      118995     10.17%     99.87% |        1220      0.10%     99.97% |         150      0.01%     99.98% |          73      0.01%     99.99% |          61      0.01%     99.99% |          29      0.00%    100.00% |          25      0.00%    100.00% |          15      0.00%    100.00% |           0      0.00%    100.00% (Unspecified)
board.cache_hierarchy.ruby_system.m_outstandReqHistSeqr::total      1170075                       (Unspecified)
board.cache_hierarchy.ruby_system.m_latencyHistSeqr::bucket_size          128                       (Unspecified)
board.cache_hierarchy.ruby_system.m_latencyHistSeqr::max_bucket         1279                       (Unspecified)
board.cache_hierarchy.ruby_system.m_latencyHistSeqr::samples      1170304                       (Unspecified)
board.cache_hierarchy.ruby_system.m_latencyHistSeqr::mean     7.118271                       (Unspecified)
board.cache_hierarchy.ruby_system.m_latencyHistSeqr::gmean     1.175615                       (Unspecified)
board.cache_hierarchy.ruby_system.m_latencyHistSeqr::stdev    35.360368                       (Unspecified)
board.cache_hierarchy.ruby_system.m_latencyHistSeqr |     1137381     97.19%     97.19% |       32887      2.81%    100.00% |          28      0.00%    100.00% |           0      0.00%    100.00% |           0      0.00%    100.00% |           1      0.00%    100.00% |           3      0.00%    100.00% |           0      0.00%    100.00% |           0      0.00%    100.00% |           4      0.00%    100.00% (Unspecified)
board.cache_hierarchy.ruby_system.m_latencyHistSeqr::total      1170304                       (Unspecified)
board.cache_hierarchy.ruby_system.m_hitLatencyHistSeqr::bucket_size           32                       (Unspecified)
board.cache_hierarchy.ruby_system.m_hitLatencyHistSeqr::max_bucket          319                       (Unspecified)
board.cache_hierarchy.ruby_system.m_hitLatencyHistSeqr::samples      1134031                       (Unspecified)
board.cache_hierarchy.ruby_system.m_hitLatencyHistSeqr::mean     1.000546                       (Unspecified)
board.cache_hierarchy.ruby_system.m_hitLatencyHistSeqr::gmean     1.000151                       (Unspecified)
board.cache_hierarchy.ruby_system.m_hitLatencyHistSeqr::stdev     0.259416                       (Unspecified)
board.cache_hierarchy.ruby_system.m_hitLatencyHistSeqr |     1134029    100.00%    100.00% |           0      0.00%    100.00% |           0      0.00%    100.00% |           0      0.00%    100.00% |           0      0.00%    100.00% |           1      0.00%    100.00% |           1      0.00%    100.00% |           0      0.00%    100.00% |           0      0.00%    100.00% |           0      0.00%    100.00% (Unspecified)
board.cache_hierarchy.ruby_system.m_hitLatencyHistSeqr::total      1134031                       (Unspecified)
board.cache_hierarchy.ruby_system.m_missLatencyHistSeqr::bucket_size          128                       (Unspecified)
board.cache_hierarchy.ruby_system.m_missLatencyHistSeqr::max_bucket         1279                       (Unspecified)
board.cache_hierarchy.ruby_system.m_missLatencyHistSeqr::samples        36273                       (Unspecified)
board.cache_hierarchy.ruby_system.m_missLatencyHistSeqr::mean   198.381468                       (Unspecified)
board.cache_hierarchy.ruby_system.m_missLatencyHistSeqr::gmean   184.060917                       (Unspecified)
board.cache_hierarchy.ruby_system.m_missLatencyHistSeqr::stdev    50.866711                       (Unspecified)
board.cache_hierarchy.ruby_system.m_missLatencyHistSeqr |        3352      9.24%      9.24% |       32885     90.66%     99.90% |          28      0.08%     99.98% |           0      0.00%     99.98% |           0      0.00%     99.98% |           1      0.00%     99.98% |           3      0.01%     99.99% |           0      0.00%     99.99% |           0      0.00%     99.99% |           4      0.01%    100.00% (Unspecified)
board.cache_hierarchy.ruby_system.m_missLatencyHistSeqr::total        36273                       (Unspecified)
board.cache_hierarchy.ruby_system.delayVCHist.vnet_0::bucket_size           32                       # delay histogram for vnet_0 (Unspecified)
board.cache_hierarchy.ruby_system.delayVCHist.vnet_0::max_bucket          319                       # delay histogram for vnet_0 (Unspecified)
board.cache_hierarchy.ruby_system.delayVCHist.vnet_0::samples        71950                       # delay histogram for vnet_0 (Unspecified)
board.cache_hierarchy.ruby_system.delayVCHist.vnet_0::mean    93.150785                       # delay histogram for vnet_0 (Unspecified)
board.cache_hierarchy.ruby_system.delayVCHist.vnet_0::stdev   106.157091                       # delay histogram for vnet_0 (Unspecified)
board.cache_hierarchy.ruby_system.delayVCHist.vnet_0 |       39634     55.09%     55.09% |          55      0.08%     55.16% |         812      1.13%     56.29% |         680      0.95%     57.24% |         495      0.69%     57.92% |        7545     10.49%     68.41% |       15233     21.17%     89.58% |        7495     10.42%    100.00% |           1      0.00%    100.00% |           0      0.00%    100.00% # delay histogram for vnet_0 (Unspecified)
board.cache_hierarchy.ruby_system.delayVCHist.vnet_0::total        71950                       # delay histogram for vnet_0 (Unspecified)
board.cache_hierarchy.ruby_system.delayVCHist.vnet_1::bucket_size            4                       # delay histogram for vnet_1 (Unspecified)
board.cache_hierarchy.ruby_system.delayVCHist.vnet_1::max_bucket           39                       # delay histogram for vnet_1 (Unspecified)
board.cache_hierarchy.ruby_system.delayVCHist.vnet_1::samples        37847                       # delay histogram for vnet_1 (Unspecified)
board.cache_hierarchy.ruby_system.delayVCHist.vnet_1::mean     0.061458                       # delay histogram for vnet_1 (Unspecified)
board.cache_hierarchy.ruby_system.delayVCHist.vnet_1::stdev     0.723253                       # delay histogram for vnet_1 (Unspecified)
board.cache_hierarchy.ruby_system.delayVCHist.vnet_1 |       37559     99.24%     99.24% |          80      0.21%     99.45% |         191      0.50%     99.96% |           5      0.01%     99.97% |          10      0.03%     99.99% |           0      0.00%     99.99% |           2      0.01%    100.00% |           0      0.00%    100.00% |           0      0.00%    100.00% |           0      0.00%    100.00% # delay histogram for vnet_1 (Unspecified)
board.cache_hierarchy.ruby_system.delayVCHist.vnet_1::total        37847                       # delay histogram for vnet_1 (Unspecified)
board.cache_hierarchy.ruby_system.delayVCHist.vnet_2::bucket_size            1                       # delay histogram for vnet_2 (Unspecified)
board.cache_hierarchy.ruby_system.delayVCHist.vnet_2::max_bucket            9                       # delay histogram for vnet_2 (Unspecified)
board.cache_hierarchy.ruby_system.delayVCHist.vnet_2::samples        33137                       # delay histogram for vnet_2 (Unspecified)
board.cache_hierarchy.ruby_system.delayVCHist.vnet_2::mean     0.000181                       # delay histogram for vnet_2 (Unspecified)
board.cache_hierarchy.ruby_system.delayVCHist.vnet_2::stdev     0.019029                       # delay histogram for vnet_2 (Unspecified)
board.cache_hierarchy.ruby_system.delayVCHist.vnet_2 |       33134     99.99%     99.99% |           0      0.00%     99.99% |           3      0.01%    100.00% |           0      0.00%    100.00% |           0      0.00%    100.00% |           0      0.00%    100.00% |           0      0.00%    100.00% |           0      0.00%    100.00% |           0      0.00%    100.00% |           0      0.00%    100.00% # delay histogram for vnet_2 (Unspecified)
board.cache_hierarchy.ruby_system.delayVCHist.vnet_2::total        33137                       # delay histogram for vnet_2 (Unspecified)
board.cache_hierarchy.ruby_system.Directory_Controller.Fetch          623      0.00%      0.00% (Unspecified)
board.cache_hierarchy.ruby_system.Directory_Controller.Memory_Data          623      0.00%      0.00% (Unspecified)
board.cache_hierarchy.ruby_system.Directory_Controller.I.Fetch          623      0.00%      0.00% (Unspecified)
board.cache_hierarchy.ruby_system.Directory_Controller.IM.Memory_Data          623      0.00%      0.00% (Unspecified)
board.cache_hierarchy.ruby_system.L1Cache_Controller.Load |        3628      1.09%      1.09% |       82506     24.74%     25.83% |       82472     24.73%     50.56% |       82443     24.72%     75.28% |       82450     24.72%    100.00% (Unspecified)
board.cache_hierarchy.ruby_system.L1Cache_Controller.Load::total       333499                       (Unspecified)
board.cache_hierarchy.ruby_system.L1Cache_Controller.Ifetch |        6059      1.07%      1.07% |      140011     24.72%     25.79% |      140124     24.74%     50.54% |      140053     24.73%     75.27% |      140055     24.73%    100.00% (Unspecified)
board.cache_hierarchy.ruby_system.L1Cache_Controller.Ifetch::total       566302                       (Unspecified)
board.cache_hierarchy.ruby_system.L1Cache_Controller.Store |        5945      2.20%      2.20% |       66288     24.51%     26.70% |       66284     24.50%     51.21% |       65993     24.40%     75.60% |       65993     24.40%    100.00% (Unspecified)
board.cache_hierarchy.ruby_system.L1Cache_Controller.Store::total       270503                       (Unspecified)
board.cache_hierarchy.ruby_system.L1Cache_Controller.Inv |          25     43.10%     43.10% |          11     18.97%     62.07% |          12     20.69%     82.76% |           7     12.07%     94.83% |           3      5.17%    100.00% (Unspecified)
board.cache_hierarchy.ruby_system.L1Cache_Controller.Inv::total           58                       (Unspecified)
board.cache_hierarchy.ruby_system.L1Cache_Controller.L1_Replacement |         471     56.95%     56.95% |         101     12.21%     69.17% |         103     12.45%     81.62% |          76      9.19%     90.81% |          76      9.19%    100.00% (Unspecified)
board.cache_hierarchy.ruby_system.L1Cache_Controller.L1_Replacement::total          827                       (Unspecified)
board.cache_hierarchy.ruby_system.L1Cache_Controller.Fwd_GETX |          12      0.04%      0.04% |        8126     24.89%     24.92% |        8200     25.11%     50.04% |        8175     25.04%     75.07% |        8139     24.93%    100.00% (Unspecified)
board.cache_hierarchy.ruby_system.L1Cache_Controller.Fwd_GETX::total        32652                       (Unspecified)
board.cache_hierarchy.ruby_system.L1Cache_Controller.Fwd_GETS |         380     88.99%     88.99% |          19      4.45%     93.44% |          14      3.28%     96.72% |           8      1.87%     98.59% |           6      1.41%    100.00% (Unspecified)
board.cache_hierarchy.ruby_system.L1Cache_Controller.Fwd_GETS::total          427                       (Unspecified)
board.cache_hierarchy.ruby_system.L1Cache_Controller.Data |           0      0.00%      0.00% |           0      0.00%      0.00% |           1    100.00%    100.00% |           0      0.00%    100.00% |           0      0.00%    100.00% (Unspecified)
board.cache_hierarchy.ruby_system.L1Cache_Controller.Data::total            1                       (Unspecified)
board.cache_hierarchy.ruby_system.L1Cache_Controller.Data_Exclusive |          53      2.90%      2.90% |         529     28.92%     31.82% |         525     28.70%     60.52% |         523     28.59%     89.12% |         199     10.88%    100.00% (Unspecified)
board.cache_hierarchy.ruby_system.L1Cache_Controller.Data_Exclusive::total         1829                       (Unspecified)
board.cache_hierarchy.ruby_system.L1Cache_Controller.DataS_fromL1 |           8      1.87%      1.87% |          23      5.39%      7.26% |          24      5.62%     12.88% |          25      5.85%     18.74% |         347     81.26%    100.00% (Unspecified)
board.cache_hierarchy.ruby_system.L1Cache_Controller.DataS_fromL1::total          427                       (Unspecified)
board.cache_hierarchy.ruby_system.L1Cache_Controller.Data_all_Acks |         420      1.24%      1.24% |        8363     24.63%     25.86% |        8447     24.87%     50.73% |        8383     24.68%     75.42% |        8348     24.58%    100.00% (Unspecified)
board.cache_hierarchy.ruby_system.L1Cache_Controller.Data_all_Acks::total        33961                       (Unspecified)
board.cache_hierarchy.ruby_system.L1Cache_Controller.Ack |           4      7.02%      7.02% |          12     21.05%     28.07% |          12     21.05%     49.12% |          14     24.56%     73.68% |          15     26.32%    100.00% (Unspecified)
board.cache_hierarchy.ruby_system.L1Cache_Controller.Ack::total           57                       (Unspecified)
board.cache_hierarchy.ruby_system.L1Cache_Controller.Ack_all |           4      7.14%      7.14% |          12     21.43%     28.57% |          12     21.43%     50.00% |          14     25.00%     75.00% |          14     25.00%    100.00% (Unspecified)
board.cache_hierarchy.ruby_system.L1Cache_Controller.Ack_all::total           56                       (Unspecified)
board.cache_hierarchy.ruby_system.L1Cache_Controller.WB_Ack |         154     33.05%     33.05% |          95     20.39%     53.43% |          97     20.82%     74.25% |          69     14.81%     89.06% |          51     10.94%    100.00% (Unspecified)
board.cache_hierarchy.ruby_system.L1Cache_Controller.WB_Ack::total          466                       (Unspecified)
board.cache_hierarchy.ruby_system.L1Cache_Controller.NP.Load |          58      2.54%      2.54% |         552     24.17%     26.71% |         555     24.30%     51.01% |         559     24.47%     75.48% |         560     24.52%    100.00% (Unspecified)
board.cache_hierarchy.ruby_system.L1Cache_Controller.NP.Load::total         2284                       (Unspecified)
board.cache_hierarchy.ruby_system.L1Cache_Controller.NP.Ifetch |         302     29.70%     29.70% |         189     18.58%     48.28% |         192     18.88%     67.16% |         168     16.52%     83.68% |         166     16.32%    100.00% (Unspecified)
board.cache_hierarchy.ruby_system.L1Cache_Controller.NP.Ifetch::total         1017                       (Unspecified)
board.cache_hierarchy.ruby_system.L1Cache_Controller.NP.Store |         109     38.11%     38.11% |          61     21.33%     59.44% |          60     20.98%     80.42% |          28      9.79%     90.21% |          28      9.79%    100.00% (Unspecified)
board.cache_hierarchy.ruby_system.L1Cache_Controller.NP.Store::total          286                       (Unspecified)
board.cache_hierarchy.ruby_system.L1Cache_Controller.I.Load |           8     47.06%     47.06% |           1      5.88%     52.94% |           3     17.65%     70.59% |           3     17.65%     88.24% |           2     11.76%    100.00% (Unspecified)
board.cache_hierarchy.ruby_system.L1Cache_Controller.I.Load::total           17                       (Unspecified)
board.cache_hierarchy.ruby_system.L1Cache_Controller.I.Store |           4      0.01%      0.01% |        8112     24.87%     24.89% |        8187     25.10%     49.99% |        8173     25.06%     75.05% |        8138     24.95%    100.00% (Unspecified)
board.cache_hierarchy.ruby_system.L1Cache_Controller.I.Store::total        32614                       (Unspecified)
board.cache_hierarchy.ruby_system.L1Cache_Controller.I.L1_Replacement |           1     50.00%     50.00% |           1     50.00%    100.00% |           0      0.00%    100.00% |           0      0.00%    100.00% |           0      0.00%    100.00% (Unspecified)
board.cache_hierarchy.ruby_system.L1Cache_Controller.I.L1_Replacement::total            2                       (Unspecified)
board.cache_hierarchy.ruby_system.L1Cache_Controller.S.Load |          22      0.42%      0.42% |          68      1.31%      1.73% |          74      1.42%      3.15% |          80      1.54%      4.68% |        4966     95.32%    100.00% (Unspecified)
board.cache_hierarchy.ruby_system.L1Cache_Controller.S.Load::total         5210                       (Unspecified)
board.cache_hierarchy.ruby_system.L1Cache_Controller.S.Ifetch |        5757      1.02%      1.02% |      139822     24.73%     25.75% |      139932     24.75%     50.51% |      139885     24.75%     75.25% |      139889     24.75%    100.00% (Unspecified)
board.cache_hierarchy.ruby_system.L1Cache_Controller.S.Ifetch::total       565285                       (Unspecified)
board.cache_hierarchy.ruby_system.L1Cache_Controller.S.Store |           4      7.27%      7.27% |          12     21.82%     29.09% |          11     20.00%     49.09% |          14     25.45%     74.55% |          14     25.45%    100.00% (Unspecified)
board.cache_hierarchy.ruby_system.L1Cache_Controller.S.Store::total           55                       (Unspecified)
board.cache_hierarchy.ruby_system.L1Cache_Controller.S.Inv |          25     43.10%     43.10% |          11     18.97%     62.07% |          12     20.69%     82.76% |           7     12.07%     94.83% |           3      5.17%    100.00% (Unspecified)
board.cache_hierarchy.ruby_system.L1Cache_Controller.S.Inv::total           58                       (Unspecified)
board.cache_hierarchy.ruby_system.L1Cache_Controller.S.L1_Replacement |         316     88.02%     88.02% |           5      1.39%     89.42% |           6      1.67%     91.09% |           7      1.95%     93.04% |          25      6.96%    100.00% (Unspecified)
board.cache_hierarchy.ruby_system.L1Cache_Controller.S.L1_Replacement::total          359                       (Unspecified)
board.cache_hierarchy.ruby_system.L1Cache_Controller.E.Load |         507      1.92%      1.92% |        7685     29.16%     31.08% |        7685     29.16%     60.23% |        7684     29.15%     89.39% |        2798     10.61%    100.00% (Unspecified)
board.cache_hierarchy.ruby_system.L1Cache_Controller.E.Load::total        26359                       (Unspecified)
board.cache_hierarchy.ruby_system.L1Cache_Controller.E.Store |          22     42.31%     42.31% |           7     13.46%     55.77% |           8     15.38%     71.15% |           7     13.46%     84.62% |           8     15.38%    100.00% (Unspecified)
board.cache_hierarchy.ruby_system.L1Cache_Controller.E.Store::total           52                       (Unspecified)
board.cache_hierarchy.ruby_system.L1Cache_Controller.E.L1_Replacement |           5      1.85%      1.85% |          84     31.11%     32.96% |          85     31.48%     64.44% |          57     21.11%     85.56% |          39     14.44%    100.00% (Unspecified)
board.cache_hierarchy.ruby_system.L1Cache_Controller.E.L1_Replacement::total          270                       (Unspecified)
board.cache_hierarchy.ruby_system.L1Cache_Controller.E.Fwd_GETS |           8     42.11%     42.11% |           6     31.58%     73.68% |           2     10.53%     84.21% |           1      5.26%     89.47% |           2     10.53%    100.00% (Unspecified)
board.cache_hierarchy.ruby_system.L1Cache_Controller.E.Fwd_GETS::total           19                       (Unspecified)
board.cache_hierarchy.ruby_system.L1Cache_Controller.M.Load |        3033      1.01%      1.01% |       74200     24.76%     25.78% |       74155     24.75%     50.53% |       74117     24.74%     75.26% |       74124     24.74%    100.00% (Unspecified)
board.cache_hierarchy.ruby_system.L1Cache_Controller.M.Load::total       299629                       (Unspecified)
board.cache_hierarchy.ruby_system.L1Cache_Controller.M.Store |        5806      2.44%      2.44% |       58096     24.46%     26.91% |       58018     24.43%     51.34% |       57771     24.33%     75.66% |       57805     24.34%    100.00% (Unspecified)
board.cache_hierarchy.ruby_system.L1Cache_Controller.M.Store::total       237496                       (Unspecified)
board.cache_hierarchy.ruby_system.L1Cache_Controller.M.L1_Replacement |         149     76.02%     76.02% |          11      5.61%     81.63% |          12      6.12%     87.76% |          12      6.12%     93.88% |          12      6.12%    100.00% (Unspecified)
board.cache_hierarchy.ruby_system.L1Cache_Controller.M.L1_Replacement::total          196                       (Unspecified)
board.cache_hierarchy.ruby_system.L1Cache_Controller.M.Fwd_GETX |          12      0.04%      0.04% |        8126     24.89%     24.92% |        8200     25.11%     50.04% |        8175     25.04%     75.07% |        8139     24.93%    100.00% (Unspecified)
board.cache_hierarchy.ruby_system.L1Cache_Controller.M.Fwd_GETX::total        32652                       (Unspecified)
board.cache_hierarchy.ruby_system.L1Cache_Controller.M.Fwd_GETS |         372     91.18%     91.18% |          13      3.19%     94.36% |          12      2.94%     97.30% |           7      1.72%     99.02% |           4      0.98%    100.00% (Unspecified)
board.cache_hierarchy.ruby_system.L1Cache_Controller.M.Fwd_GETS::total          408                       (Unspecified)
board.cache_hierarchy.ruby_system.L1Cache_Controller.IS.Data_Exclusive |          53      2.90%      2.90% |         529     28.92%     31.82% |         525     28.70%     60.52% |         523     28.59%     89.12% |         199     10.88%    100.00% (Unspecified)
board.cache_hierarchy.ruby_system.L1Cache_Controller.IS.Data_Exclusive::total         1829                       (Unspecified)
board.cache_hierarchy.ruby_system.L1Cache_Controller.IS.DataS_fromL1 |           8      1.87%      1.87% |          23      5.39%      7.26% |          24      5.62%     12.88% |          25      5.85%     18.74% |         347     81.26%    100.00% (Unspecified)
board.cache_hierarchy.ruby_system.L1Cache_Controller.IS.DataS_fromL1::total          427                       (Unspecified)
board.cache_hierarchy.ruby_system.L1Cache_Controller.IS.Data_all_Acks |         307     28.91%     28.91% |         190     17.89%     46.80% |         201     18.93%     65.73% |         182     17.14%     82.86% |         182     17.14%    100.00% (Unspecified)
board.cache_hierarchy.ruby_system.L1Cache_Controller.IS.Data_all_Acks::total         1062                       (Unspecified)
board.cache_hierarchy.ruby_system.L1Cache_Controller.IM.Data |           0      0.00%      0.00% |           0      0.00%      0.00% |           1    100.00%    100.00% |           0      0.00%    100.00% |           0      0.00%    100.00% (Unspecified)
board.cache_hierarchy.ruby_system.L1Cache_Controller.IM.Data::total            1                       (Unspecified)
board.cache_hierarchy.ruby_system.L1Cache_Controller.IM.Data_all_Acks |         113      0.34%      0.34% |        8173     24.84%     25.19% |        8246     25.06%     50.25% |        8201     24.93%     75.18% |        8166     24.82%    100.00% (Unspecified)
board.cache_hierarchy.ruby_system.L1Cache_Controller.IM.Data_all_Acks::total        32899                       (Unspecified)
board.cache_hierarchy.ruby_system.L1Cache_Controller.SM.Ack |           4      7.02%      7.02% |          12     21.05%     28.07% |          12     21.05%     49.12% |          14     24.56%     73.68% |          15     26.32%    100.00% (Unspecified)
board.cache_hierarchy.ruby_system.L1Cache_Controller.SM.Ack::total           57                       (Unspecified)
board.cache_hierarchy.ruby_system.L1Cache_Controller.SM.Ack_all |           4      7.14%      7.14% |          12     21.43%     28.57% |          12     21.43%     50.00% |          14     25.00%     75.00% |          14     25.00%    100.00% (Unspecified)
board.cache_hierarchy.ruby_system.L1Cache_Controller.SM.Ack_all::total           56                       (Unspecified)
board.cache_hierarchy.ruby_system.L1Cache_Controller.M_I.WB_Ack |         154     33.05%     33.05% |          95     20.39%     53.43% |          97     20.82%     74.25% |          69     14.81%     89.06% |          51     10.94%    100.00% (Unspecified)
board.cache_hierarchy.ruby_system.L1Cache_Controller.M_I.WB_Ack::total          466                       (Unspecified)
board.cache_hierarchy.ruby_system.L2Cache_Controller.L1_GET_INSTR |         256     25.17%     25.17% |         251     24.68%     49.85% |         263     25.86%     75.71% |         247     24.29%    100.00% (Unspecified)
board.cache_hierarchy.ruby_system.L2Cache_Controller.L1_GET_INSTR::total         1017                       (Unspecified)
board.cache_hierarchy.ruby_system.L2Cache_Controller.L1_GETS |         563     24.45%     24.45% |         590     25.62%     50.07% |         592     25.71%     75.77% |         558     24.23%    100.00% (Unspecified)
board.cache_hierarchy.ruby_system.L2Cache_Controller.L1_GETS::total         2303                       (Unspecified)
board.cache_hierarchy.ruby_system.L2Cache_Controller.L1_GETX |      111948     99.81%     99.81% |          79      0.07%     99.88% |          68      0.06%     99.94% |          63      0.06%    100.00% (Unspecified)
board.cache_hierarchy.ruby_system.L2Cache_Controller.L1_GETX::total       112158                       (Unspecified)
board.cache_hierarchy.ruby_system.L2Cache_Controller.L1_UPGRADE |           7     12.73%     12.73% |          26     47.27%     60.00% |          19     34.55%     94.55% |           3      5.45%    100.00% (Unspecified)
board.cache_hierarchy.ruby_system.L2Cache_Controller.L1_UPGRADE::total           55                       (Unspecified)
board.cache_hierarchy.ruby_system.L2Cache_Controller.L1_PUTX |         113     24.25%     24.25% |         125     26.82%     51.07% |         127     27.25%     78.33% |         101     21.67%    100.00% (Unspecified)
board.cache_hierarchy.ruby_system.L2Cache_Controller.L1_PUTX::total          466                       (Unspecified)
board.cache_hierarchy.ruby_system.L2Cache_Controller.Mem_Data |         155     24.88%     24.88% |         162     26.00%     50.88% |         156     25.04%     75.92% |         150     24.08%    100.00% (Unspecified)
board.cache_hierarchy.ruby_system.L2Cache_Controller.Mem_Data::total          623                       (Unspecified)
board.cache_hierarchy.ruby_system.L2Cache_Controller.WB_Data |          93     22.79%     22.79% |         116     28.43%     51.23% |         105     25.74%     76.96% |          94     23.04%    100.00% (Unspecified)
board.cache_hierarchy.ruby_system.L2Cache_Controller.WB_Data::total          408                       (Unspecified)
board.cache_hierarchy.ruby_system.L2Cache_Controller.WB_Data_clean |           6     31.58%     31.58% |           4     21.05%     52.63% |           6     31.58%     84.21% |           3     15.79%    100.00% (Unspecified)
board.cache_hierarchy.ruby_system.L2Cache_Controller.WB_Data_clean::total           19                       (Unspecified)
board.cache_hierarchy.ruby_system.L2Cache_Controller.Unblock |          99     23.19%     23.19% |         120     28.10%     51.29% |         111     26.00%     77.28% |          97     22.72%    100.00% (Unspecified)
board.cache_hierarchy.ruby_system.L2Cache_Controller.Unblock::total          427                       (Unspecified)
board.cache_hierarchy.ruby_system.L2Cache_Controller.Exclusive_Unblock |       33150     95.30%     95.30% |         567      1.63%     96.93% |         550      1.58%     98.51% |         517      1.49%    100.00% (Unspecified)
board.cache_hierarchy.ruby_system.L2Cache_Controller.Exclusive_Unblock::total        34784                       (Unspecified)
board.cache_hierarchy.ruby_system.L2Cache_Controller.NP.L1_GET_INSTR |          91     24.66%     24.66% |          92     24.93%     49.59% |          94     25.47%     75.07% |          92     24.93%    100.00% (Unspecified)
board.cache_hierarchy.ruby_system.L2Cache_Controller.NP.L1_GET_INSTR::total          369                       (Unspecified)
board.cache_hierarchy.ruby_system.L2Cache_Controller.NP.L1_GETS |           6     23.08%     23.08% |           8     30.77%     53.85% |           5     19.23%     73.08% |           7     26.92%    100.00% (Unspecified)
board.cache_hierarchy.ruby_system.L2Cache_Controller.NP.L1_GETS::total           26                       (Unspecified)
board.cache_hierarchy.ruby_system.L2Cache_Controller.NP.L1_GETX |          58     25.44%     25.44% |          62     27.19%     52.63% |          57     25.00%     77.63% |          51     22.37%    100.00% (Unspecified)
board.cache_hierarchy.ruby_system.L2Cache_Controller.NP.L1_GETX::total          228                       (Unspecified)
board.cache_hierarchy.ruby_system.L2Cache_Controller.SS.L1_GET_INSTR |         165     25.54%     25.54% |         158     24.46%     50.00% |         168     26.01%     76.01% |         155     23.99%    100.00% (Unspecified)
board.cache_hierarchy.ruby_system.L2Cache_Controller.SS.L1_GET_INSTR::total          646                       (Unspecified)
board.cache_hierarchy.ruby_system.L2Cache_Controller.SS.L1_GETS |           9     20.00%     20.00% |           8     17.78%     37.78% |          18     40.00%     77.78% |          10     22.22%    100.00% (Unspecified)
board.cache_hierarchy.ruby_system.L2Cache_Controller.SS.L1_GETS::total           45                       (Unspecified)
board.cache_hierarchy.ruby_system.L2Cache_Controller.SS.L1_GETX |           0      0.00%      0.00% |           0      0.00%      0.00% |           1    100.00%    100.00% |           0      0.00%    100.00% (Unspecified)
board.cache_hierarchy.ruby_system.L2Cache_Controller.SS.L1_GETX::total            1                       (Unspecified)
board.cache_hierarchy.ruby_system.L2Cache_Controller.SS.L1_UPGRADE |           7     12.73%     12.73% |          26     47.27%     60.00% |          19     34.55%     94.55% |           3      5.45%    100.00% (Unspecified)
board.cache_hierarchy.ruby_system.L2Cache_Controller.SS.L1_UPGRADE::total           55                       (Unspecified)
board.cache_hierarchy.ruby_system.L2Cache_Controller.M.L1_GETS |         447     24.79%     24.79% |         454     25.18%     49.97% |         458     25.40%     75.37% |         444     24.63%    100.00% (Unspecified)
board.cache_hierarchy.ruby_system.L2Cache_Controller.M.L1_GETS::total         1803                       (Unspecified)
board.cache_hierarchy.ruby_system.L2Cache_Controller.M.L1_GETX |           4     21.05%     21.05% |           7     36.84%     57.89% |           4     21.05%     78.95% |           4     21.05%    100.00% (Unspecified)
board.cache_hierarchy.ruby_system.L2Cache_Controller.M.L1_GETX::total           19                       (Unspecified)
board.cache_hierarchy.ruby_system.L2Cache_Controller.MT.L1_GETS |          99     23.19%     23.19% |         120     28.10%     51.29% |         111     26.00%     77.28% |          97     22.72%    100.00% (Unspecified)
board.cache_hierarchy.ruby_system.L2Cache_Controller.MT.L1_GETS::total          427                       (Unspecified)
board.cache_hierarchy.ruby_system.L2Cache_Controller.MT.L1_GETX |       32628     99.93%     99.93% |          10      0.03%     99.96% |           6      0.02%     99.98% |           8      0.02%    100.00% (Unspecified)
board.cache_hierarchy.ruby_system.L2Cache_Controller.MT.L1_GETX::total        32652                       (Unspecified)
board.cache_hierarchy.ruby_system.L2Cache_Controller.MT.L1_PUTX |         113     24.25%     24.25% |         125     26.82%     51.07% |         127     27.25%     78.33% |         101     21.67%    100.00% (Unspecified)
board.cache_hierarchy.ruby_system.L2Cache_Controller.MT.L1_PUTX::total          466                       (Unspecified)
board.cache_hierarchy.ruby_system.L2Cache_Controller.ISS.Mem_Data |           6     23.08%     23.08% |           8     30.77%     53.85% |           5     19.23%     73.08% |           7     26.92%    100.00% (Unspecified)
board.cache_hierarchy.ruby_system.L2Cache_Controller.ISS.Mem_Data::total           26                       (Unspecified)
board.cache_hierarchy.ruby_system.L2Cache_Controller.IS.L1_GET_INSTR |           0      0.00%      0.00% |           1     50.00%     50.00% |           1     50.00%    100.00% |           0      0.00%    100.00% (Unspecified)
board.cache_hierarchy.ruby_system.L2Cache_Controller.IS.L1_GET_INSTR::total            2                       (Unspecified)
board.cache_hierarchy.ruby_system.L2Cache_Controller.IS.Mem_Data |          91     24.66%     24.66% |          92     24.93%     49.59% |          94     25.47%     75.07% |          92     24.93%    100.00% (Unspecified)
board.cache_hierarchy.ruby_system.L2Cache_Controller.IS.Mem_Data::total          369                       (Unspecified)
board.cache_hierarchy.ruby_system.L2Cache_Controller.IM.Mem_Data |          58     25.44%     25.44% |          62     27.19%     52.63% |          57     25.00%     77.63% |          51     22.37%    100.00% (Unspecified)
board.cache_hierarchy.ruby_system.L2Cache_Controller.IM.Mem_Data::total          228                       (Unspecified)
board.cache_hierarchy.ruby_system.L2Cache_Controller.SS_MB.L1_GETS |           1    100.00%    100.00% |           0      0.00%    100.00% |           0      0.00%    100.00% |           0      0.00%    100.00% (Unspecified)
board.cache_hierarchy.ruby_system.L2Cache_Controller.SS_MB.L1_GETS::total            1                       (Unspecified)
board.cache_hierarchy.ruby_system.L2Cache_Controller.SS_MB.Exclusive_Unblock |           7     12.50%     12.50% |          26     46.43%     58.93% |          20     35.71%     94.64% |           3      5.36%    100.00% (Unspecified)
board.cache_hierarchy.ruby_system.L2Cache_Controller.SS_MB.Exclusive_Unblock::total           56                       (Unspecified)
board.cache_hierarchy.ruby_system.L2Cache_Controller.MT_MB.L1_GETS |           1    100.00%    100.00% |           0      0.00%    100.00% |           0      0.00%    100.00% |           0      0.00%    100.00% (Unspecified)
board.cache_hierarchy.ruby_system.L2Cache_Controller.MT_MB.L1_GETS::total            1                       (Unspecified)
board.cache_hierarchy.ruby_system.L2Cache_Controller.MT_MB.L1_GETX |       79258    100.00%    100.00% |           0      0.00%    100.00% |           0      0.00%    100.00% |           0      0.00%    100.00% (Unspecified)
board.cache_hierarchy.ruby_system.L2Cache_Controller.MT_MB.L1_GETX::total        79258                       (Unspecified)
board.cache_hierarchy.ruby_system.L2Cache_Controller.MT_MB.Exclusive_Unblock |       33143     95.44%     95.44% |         541      1.56%     96.99% |         530      1.53%     98.52% |         514      1.48%    100.00% (Unspecified)
board.cache_hierarchy.ruby_system.L2Cache_Controller.MT_MB.Exclusive_Unblock::total        34728                       (Unspecified)
board.cache_hierarchy.ruby_system.L2Cache_Controller.MT_IIB.WB_Data |          92     23.06%     23.06% |         112     28.07%     51.13% |         101     25.31%     76.44% |          94     23.56%    100.00% (Unspecified)
board.cache_hierarchy.ruby_system.L2Cache_Controller.MT_IIB.WB_Data::total          399                       (Unspecified)
board.cache_hierarchy.ruby_system.L2Cache_Controller.MT_IIB.WB_Data_clean |           6     31.58%     31.58% |           4     21.05%     52.63% |           6     31.58%     84.21% |           3     15.79%    100.00% (Unspecified)
board.cache_hierarchy.ruby_system.L2Cache_Controller.MT_IIB.WB_Data_clean::total           19                       (Unspecified)
board.cache_hierarchy.ruby_system.L2Cache_Controller.MT_IIB.Unblock |           1     11.11%     11.11% |           4     44.44%     55.56% |           4     44.44%    100.00% |           0      0.00%    100.00% (Unspecified)
board.cache_hierarchy.ruby_system.L2Cache_Controller.MT_IIB.Unblock::total            9                       (Unspecified)
board.cache_hierarchy.ruby_system.L2Cache_Controller.MT_IB.WB_Data |           1     11.11%     11.11% |           4     44.44%     55.56% |           4     44.44%    100.00% |           0      0.00%    100.00% (Unspecified)
board.cache_hierarchy.ruby_system.L2Cache_Controller.MT_IB.WB_Data::total            9                       (Unspecified)
board.cache_hierarchy.ruby_system.L2Cache_Controller.MT_SB.Unblock |          98     23.44%     23.44% |         116     27.75%     51.20% |         107     25.60%     76.79% |          97     23.21%    100.00% (Unspecified)
board.cache_hierarchy.ruby_system.L2Cache_Controller.MT_SB.Unblock::total          418                       (Unspecified)
board.cache_hierarchy.ruby_system.RequestType.LD.latency_hist_seqr::bucket_size           32                       (Unspecified)
board.cache_hierarchy.ruby_system.RequestType.LD.latency_hist_seqr::max_bucket          319                       (Unspecified)
board.cache_hierarchy.ruby_system.RequestType.LD.latency_hist_seqr::samples       333499                       (Unspecified)
board.cache_hierarchy.ruby_system.RequestType.LD.latency_hist_seqr::mean     1.338340                       (Unspecified)
board.cache_hierarchy.ruby_system.RequestType.LD.latency_hist_seqr::gmean     1.026288                       (Unspecified)
board.cache_hierarchy.ruby_system.RequestType.LD.latency_hist_seqr::stdev     4.626580                       (Unspecified)
board.cache_hierarchy.ruby_system.RequestType.LD.latency_hist_seqr |      331655     99.45%     99.45% |        1738      0.52%     99.97% |          79      0.02%     99.99% |           0      0.00%     99.99% |           2      0.00%     99.99% |           1      0.00%     99.99% |          11      0.00%    100.00% |           6      0.00%    100.00% |           6      0.00%    100.00% |           1      0.00%    100.00% (Unspecified)
board.cache_hierarchy.ruby_system.RequestType.LD.latency_hist_seqr::total       333499                       (Unspecified)
board.cache_hierarchy.ruby_system.RequestType.LD.hit_latency_hist_seqr::bucket_size            1                       (Unspecified)
board.cache_hierarchy.ruby_system.RequestType.LD.hit_latency_hist_seqr::max_bucket            9                       (Unspecified)
board.cache_hierarchy.ruby_system.RequestType.LD.hit_latency_hist_seqr::samples       331198                       (Unspecified)
board.cache_hierarchy.ruby_system.RequestType.LD.hit_latency_hist_seqr::mean     1.000012                       (Unspecified)
board.cache_hierarchy.ruby_system.RequestType.LD.hit_latency_hist_seqr::gmean     1.000008                       (Unspecified)
board.cache_hierarchy.ruby_system.RequestType.LD.hit_latency_hist_seqr::stdev     0.003475                       (Unspecified)
board.cache_hierarchy.ruby_system.RequestType.LD.hit_latency_hist_seqr |           0      0.00%      0.00% |      331194    100.00%    100.00% |           4      0.00%    100.00% |           0      0.00%    100.00% |           0      0.00%    100.00% |           0      0.00%    100.00% |           0      0.00%    100.00% |           0      0.00%    100.00% |           0      0.00%    100.00% |           0      0.00%    100.00% (Unspecified)
board.cache_hierarchy.ruby_system.RequestType.LD.hit_latency_hist_seqr::total       331198                       (Unspecified)
board.cache_hierarchy.ruby_system.RequestType.LD.miss_latency_hist_seqr::bucket_size           32                       (Unspecified)
board.cache_hierarchy.ruby_system.RequestType.LD.miss_latency_hist_seqr::max_bucket          319                       (Unspecified)
board.cache_hierarchy.ruby_system.RequestType.LD.miss_latency_hist_seqr::samples         2301                       (Unspecified)
board.cache_hierarchy.ruby_system.RequestType.LD.miss_latency_hist_seqr::mean    50.036071                       (Unspecified)
board.cache_hierarchy.ruby_system.RequestType.LD.miss_latency_hist_seqr::gmean    42.935962                       (Unspecified)
board.cache_hierarchy.ruby_system.RequestType.LD.miss_latency_hist_seqr::stdev    26.734931                       (Unspecified)
board.cache_hierarchy.ruby_system.RequestType.LD.miss_latency_hist_seqr |         457     19.86%     19.86% |        1738     75.53%     95.39% |          79      3.43%     98.83% |           0      0.00%     98.83% |           2      0.09%     98.91% |           1      0.04%     98.96% |          11      0.48%     99.44% |           6      0.26%     99.70% |           6      0.26%     99.96% |           1      0.04%    100.00% (Unspecified)
board.cache_hierarchy.ruby_system.RequestType.LD.miss_latency_hist_seqr::total         2301                       (Unspecified)
board.cache_hierarchy.ruby_system.RequestType.ST.latency_hist_seqr::bucket_size          128                       (Unspecified)
board.cache_hierarchy.ruby_system.RequestType.ST.latency_hist_seqr::max_bucket         1279                       (Unspecified)
board.cache_hierarchy.ruby_system.RequestType.ST.latency_hist_seqr::samples       171703                       (Unspecified)
board.cache_hierarchy.ruby_system.RequestType.ST.latency_hist_seqr::mean     1.285936                       (Unspecified)
board.cache_hierarchy.ruby_system.RequestType.ST.latency_hist_seqr::gmean     1.009422                       (Unspecified)
board.cache_hierarchy.ruby_system.RequestType.ST.latency_hist_seqr::stdev     7.930971                       (Unspecified)
board.cache_hierarchy.ruby_system.RequestType.ST.latency_hist_seqr |      171477     99.87%     99.87% |         215      0.13%     99.99% |           9      0.01%    100.00% |           0      0.00%    100.00% |           0      0.00%    100.00% |           0      0.00%    100.00% |           1      0.00%    100.00% |           0      0.00%    100.00% |           0      0.00%    100.00% |           1      0.00%    100.00% (Unspecified)
board.cache_hierarchy.ruby_system.RequestType.ST.latency_hist_seqr::total       171703                       (Unspecified)
board.cache_hierarchy.ruby_system.RequestType.ST.hit_latency_hist_seqr::bucket_size           32                       (Unspecified)
board.cache_hierarchy.ruby_system.RequestType.ST.hit_latency_hist_seqr::max_bucket          319                       (Unspecified)
board.cache_hierarchy.ruby_system.RequestType.ST.hit_latency_hist_seqr::samples       171413                       (Unspecified)
board.cache_hierarchy.ruby_system.RequestType.ST.hit_latency_hist_seqr::mean     1.003535                       (Unspecified)
board.cache_hierarchy.ruby_system.RequestType.ST.hit_latency_hist_seqr::gmean     1.000947                       (Unspecified)
board.cache_hierarchy.ruby_system.RequestType.ST.hit_latency_hist_seqr::stdev     0.667186                       (Unspecified)
board.cache_hierarchy.ruby_system.RequestType.ST.hit_latency_hist_seqr |      171411    100.00%    100.00% |           0      0.00%    100.00% |           0      0.00%    100.00% |           0      0.00%    100.00% |           0      0.00%    100.00% |           1      0.00%    100.00% |           1      0.00%    100.00% |           0      0.00%    100.00% |           0      0.00%    100.00% |           0      0.00%    100.00% (Unspecified)
board.cache_hierarchy.ruby_system.RequestType.ST.hit_latency_hist_seqr::total       171413                       (Unspecified)
board.cache_hierarchy.ruby_system.RequestType.ST.miss_latency_hist_seqr::bucket_size          128                       (Unspecified)
board.cache_hierarchy.ruby_system.RequestType.ST.miss_latency_hist_seqr::max_bucket         1279                       (Unspecified)
board.cache_hierarchy.ruby_system.RequestType.ST.miss_latency_hist_seqr::samples          290                       (Unspecified)
board.cache_hierarchy.ruby_system.RequestType.ST.miss_latency_hist_seqr::mean   168.206897                       (Unspecified)
board.cache_hierarchy.ruby_system.RequestType.ST.miss_latency_hist_seqr::gmean   147.346948                       (Unspecified)
board.cache_hierarchy.ruby_system.RequestType.ST.miss_latency_hist_seqr::stdev    95.395364                       (Unspecified)
board.cache_hierarchy.ruby_system.RequestType.ST.miss_latency_hist_seqr |          66     22.76%     22.76% |         213     73.45%     96.21% |           9      3.10%     99.31% |           0      0.00%     99.31% |           0      0.00%     99.31% |           0      0.00%     99.31% |           1      0.34%     99.66% |           0      0.00%     99.66% |           0      0.00%     99.66% |           1      0.34%    100.00% (Unspecified)
board.cache_hierarchy.ruby_system.RequestType.ST.miss_latency_hist_seqr::total          290                       (Unspecified)
board.cache_hierarchy.ruby_system.RequestType.IFETCH.latency_hist_seqr::bucket_size          128                       (Unspecified)
board.cache_hierarchy.ruby_system.RequestType.IFETCH.latency_hist_seqr::max_bucket         1279                       (Unspecified)
board.cache_hierarchy.ruby_system.RequestType.IFETCH.latency_hist_seqr::samples       566302                       (Unspecified)
board.cache_hierarchy.ruby_system.RequestType.IFETCH.latency_hist_seqr::mean     1.182819                       (Unspecified)
board.cache_hierarchy.ruby_system.RequestType.IFETCH.latency_hist_seqr::gmean     1.007644                       (Unspecified)
board.cache_hierarchy.ruby_system.RequestType.IFETCH.latency_hist_seqr::stdev     6.136178                       (Unspecified)
board.cache_hierarchy.ruby_system.RequestType.IFETCH.latency_hist_seqr |      565932     99.93%     99.93% |         352      0.06%    100.00% |          12      0.00%    100.00% |           0      0.00%    100.00% |           0      0.00%    100.00% |           1      0.00%    100.00% |           2      0.00%    100.00% |           0      0.00%    100.00% |           0      0.00%    100.00% |           3      0.00%    100.00% (Unspecified)
board.cache_hierarchy.ruby_system.RequestType.IFETCH.latency_hist_seqr::total       566302                       (Unspecified)
board.cache_hierarchy.ruby_system.RequestType.IFETCH.hit_latency_hist_seqr::bucket_size            1                       (Unspecified)
board.cache_hierarchy.ruby_system.RequestType.IFETCH.hit_latency_hist_seqr::max_bucket            9                       (Unspecified)
board.cache_hierarchy.ruby_system.RequestType.IFETCH.hit_latency_hist_seqr::samples       565285                       (Unspecified)
board.cache_hierarchy.ruby_system.RequestType.IFETCH.hit_latency_hist_seqr::mean            1                       (Unspecified)
board.cache_hierarchy.ruby_system.RequestType.IFETCH.hit_latency_hist_seqr::gmean            1                       (Unspecified)
board.cache_hierarchy.ruby_system.RequestType.IFETCH.hit_latency_hist_seqr |           0      0.00%      0.00% |      565285    100.00%    100.00% |           0      0.00%    100.00% |           0      0.00%    100.00% |           0      0.00%    100.00% |           0      0.00%    100.00% |           0      0.00%    100.00% |           0      0.00%    100.00% |           0      0.00%    100.00% |           0      0.00%    100.00% (Unspecified)
board.cache_hierarchy.ruby_system.RequestType.IFETCH.hit_latency_hist_seqr::total       565285                       (Unspecified)
board.cache_hierarchy.ruby_system.RequestType.IFETCH.miss_latency_hist_seqr::bucket_size          128                       (Unspecified)
board.cache_hierarchy.ruby_system.RequestType.IFETCH.miss_latency_hist_seqr::max_bucket         1279                       (Unspecified)
board.cache_hierarchy.ruby_system.RequestType.IFETCH.miss_latency_hist_seqr::samples         1017                       (Unspecified)
board.cache_hierarchy.ruby_system.RequestType.IFETCH.miss_latency_hist_seqr::mean   102.800393                       (Unspecified)
board.cache_hierarchy.ruby_system.RequestType.IFETCH.miss_latency_hist_seqr::gmean    69.433459                       (Unspecified)
board.cache_hierarchy.ruby_system.RequestType.IFETCH.miss_latency_hist_seqr::stdev   103.111917                       (Unspecified)
board.cache_hierarchy.ruby_system.RequestType.IFETCH.miss_latency_hist_seqr |         647     63.62%     63.62% |         352     34.61%     98.23% |          12      1.18%     99.41% |           0      0.00%     99.41% |           0      0.00%     99.41% |           1      0.10%     99.51% |           2      0.20%     99.71% |           0      0.00%     99.71% |           0      0.00%     99.71% |           3      0.29%    100.00% (Unspecified)
board.cache_hierarchy.ruby_system.RequestType.IFETCH.miss_latency_hist_seqr::total         1017                       (Unspecified)
board.cache_hierarchy.ruby_system.RequestType.RMW_Read.latency_hist_seqr::bucket_size           32                       (Unspecified)
board.cache_hierarchy.ruby_system.RequestType.RMW_Read.latency_hist_seqr::max_bucket          319                       (Unspecified)
board.cache_hierarchy.ruby_system.RequestType.RMW_Read.latency_hist_seqr::samples        32882                       (Unspecified)
board.cache_hierarchy.ruby_system.RequestType.RMW_Read.latency_hist_seqr::mean     1.033423                       (Unspecified)
board.cache_hierarchy.ruby_system.RequestType.RMW_Read.latency_hist_seqr::gmean     1.001464                       (Unspecified)
board.cache_hierarchy.ruby_system.RequestType.RMW_Read.latency_hist_seqr::stdev     2.249041                       (Unspecified)
board.cache_hierarchy.ruby_system.RequestType.RMW_Read.latency_hist_seqr |       32873     99.97%     99.97% |           1      0.00%     99.98% |           4      0.01%     99.99% |           0      0.00%     99.99% |           0      0.00%     99.99% |           2      0.01%     99.99% |           2      0.01%    100.00% |           0      0.00%    100.00% |           0      0.00%    100.00% |           0      0.00%    100.00% (Unspecified)
board.cache_hierarchy.ruby_system.RequestType.RMW_Read.latency_hist_seqr::total        32882                       (Unspecified)
board.cache_hierarchy.ruby_system.RequestType.RMW_Read.hit_latency_hist_seqr::bucket_size            1                       (Unspecified)
board.cache_hierarchy.ruby_system.RequestType.RMW_Read.hit_latency_hist_seqr::max_bucket            9                       (Unspecified)
board.cache_hierarchy.ruby_system.RequestType.RMW_Read.hit_latency_hist_seqr::samples        32873                       (Unspecified)
board.cache_hierarchy.ruby_system.RequestType.RMW_Read.hit_latency_hist_seqr::mean     1.000274                       (Unspecified)
board.cache_hierarchy.ruby_system.RequestType.RMW_Read.hit_latency_hist_seqr::gmean     1.000190                       (Unspecified)
board.cache_hierarchy.ruby_system.RequestType.RMW_Read.hit_latency_hist_seqr::stdev     0.016544                       (Unspecified)
board.cache_hierarchy.ruby_system.RequestType.RMW_Read.hit_latency_hist_seqr |           0      0.00%      0.00% |       32864     99.97%     99.97% |           9      0.03%    100.00% |           0      0.00%    100.00% |           0      0.00%    100.00% |           0      0.00%    100.00% |           0      0.00%    100.00% |           0      0.00%    100.00% |           0      0.00%    100.00% |           0      0.00%    100.00% (Unspecified)
board.cache_hierarchy.ruby_system.RequestType.RMW_Read.hit_latency_hist_seqr::total        32873                       (Unspecified)
board.cache_hierarchy.ruby_system.RequestType.RMW_Read.miss_latency_hist_seqr::bucket_size           32                       (Unspecified)
board.cache_hierarchy.ruby_system.RequestType.RMW_Read.miss_latency_hist_seqr::max_bucket          319                       (Unspecified)
board.cache_hierarchy.ruby_system.RequestType.RMW_Read.miss_latency_hist_seqr::samples            9                       (Unspecified)
board.cache_hierarchy.ruby_system.RequestType.RMW_Read.miss_latency_hist_seqr::mean   122.111111                       (Unspecified)
board.cache_hierarchy.ruby_system.RequestType.RMW_Read.miss_latency_hist_seqr::gmean   104.690108                       (Unspecified)
board.cache_hierarchy.ruby_system.RequestType.RMW_Read.miss_latency_hist_seqr::stdev    65.512297                       (Unspecified)
board.cache_hierarchy.ruby_system.RequestType.RMW_Read.miss_latency_hist_seqr |           0      0.00%      0.00% |           1     11.11%     11.11% |           4     44.44%     55.56% |           0      0.00%     55.56% |           0      0.00%     55.56% |           2     22.22%     77.78% |           2     22.22%    100.00% |           0      0.00%    100.00% |           0      0.00%    100.00% |           0      0.00%    100.00% (Unspecified)
board.cache_hierarchy.ruby_system.RequestType.RMW_Read.miss_latency_hist_seqr::total            9                       (Unspecified)
board.cache_hierarchy.ruby_system.RequestType.Locked_RMW_Read.latency_hist_seqr::bucket_size           32                       (Unspecified)
board.cache_hierarchy.ruby_system.RequestType.Locked_RMW_Read.latency_hist_seqr::max_bucket          319                       (Unspecified)
board.cache_hierarchy.ruby_system.RequestType.Locked_RMW_Read.latency_hist_seqr::samples        32959                       (Unspecified)
board.cache_hierarchy.ruby_system.RequestType.Locked_RMW_Read.latency_hist_seqr::mean   210.159107                       (Unspecified)
board.cache_hierarchy.ruby_system.RequestType.Locked_RMW_Read.latency_hist_seqr::gmean   200.564004                       (Unspecified)
board.cache_hierarchy.ruby_system.RequestType.Locked_RMW_Read.latency_hist_seqr::stdev    27.940485                       (Unspecified)
board.cache_hierarchy.ruby_system.RequestType.Locked_RMW_Read.latency_hist_seqr |         305      0.93%      0.93% |          24      0.07%      1.00% |         299      0.91%      1.91% |          35      0.11%      2.01% |         357      1.08%      3.09% |        1537      4.66%      7.76% |       30401     92.24%    100.00% |           1      0.00%    100.00% |           0      0.00%    100.00% |           0      0.00%    100.00% (Unspecified)
board.cache_hierarchy.ruby_system.RequestType.Locked_RMW_Read.latency_hist_seqr::total        32959                       (Unspecified)
board.cache_hierarchy.ruby_system.RequestType.Locked_RMW_Read.hit_latency_hist_seqr::bucket_size            1                       (Unspecified)
board.cache_hierarchy.ruby_system.RequestType.Locked_RMW_Read.hit_latency_hist_seqr::max_bucket            9                       (Unspecified)
board.cache_hierarchy.ruby_system.RequestType.Locked_RMW_Read.hit_latency_hist_seqr::samples          303                       (Unspecified)
board.cache_hierarchy.ruby_system.RequestType.Locked_RMW_Read.hit_latency_hist_seqr::mean            1                       (Unspecified)
board.cache_hierarchy.ruby_system.RequestType.Locked_RMW_Read.hit_latency_hist_seqr::gmean            1                       (Unspecified)
board.cache_hierarchy.ruby_system.RequestType.Locked_RMW_Read.hit_latency_hist_seqr |           0      0.00%      0.00% |         303    100.00%    100.00% |           0      0.00%    100.00% |           0      0.00%    100.00% |           0      0.00%    100.00% |           0      0.00%    100.00% |           0      0.00%    100.00% |           0      0.00%    100.00% |           0      0.00%    100.00% |           0      0.00%    100.00% (Unspecified)
board.cache_hierarchy.ruby_system.RequestType.Locked_RMW_Read.hit_latency_hist_seqr::total          303                       (Unspecified)
board.cache_hierarchy.ruby_system.RequestType.Locked_RMW_Read.miss_latency_hist_seqr::bucket_size           32                       (Unspecified)
board.cache_hierarchy.ruby_system.RequestType.Locked_RMW_Read.miss_latency_hist_seqr::max_bucket          319                       (Unspecified)
board.cache_hierarchy.ruby_system.RequestType.Locked_RMW_Read.miss_latency_hist_seqr::samples        32656                       (Unspecified)
board.cache_hierarchy.ruby_system.RequestType.Locked_RMW_Read.miss_latency_hist_seqr::mean   212.099798                       (Unspecified)
board.cache_hierarchy.ruby_system.RequestType.Locked_RMW_Read.miss_latency_hist_seqr::gmean   210.675745                       (Unspecified)
board.cache_hierarchy.ruby_system.RequestType.Locked_RMW_Read.miss_latency_hist_seqr::stdev    19.447940                       (Unspecified)
board.cache_hierarchy.ruby_system.RequestType.Locked_RMW_Read.miss_latency_hist_seqr |           2      0.01%      0.01% |          24      0.07%      0.08% |         299      0.92%      1.00% |          35      0.11%      1.10% |         357      1.09%      2.20% |        1537      4.71%      6.90% |       30401     93.09%    100.00% |           1      0.00%    100.00% |           0      0.00%    100.00% |           0      0.00%    100.00% (Unspecified)
board.cache_hierarchy.ruby_system.RequestType.Locked_RMW_Read.miss_latency_hist_seqr::total        32656                       (Unspecified)
board.cache_hierarchy.ruby_system.RequestType.Locked_RMW_Write.latency_hist_seqr::bucket_size            1                       (Unspecified)
board.cache_hierarchy.ruby_system.RequestType.Locked_RMW_Write.latency_hist_seqr::max_bucket            9                       (Unspecified)
board.cache_hierarchy.ruby_system.RequestType.Locked_RMW_Write.latency_hist_seqr::samples        32959                       (Unspecified)
board.cache_hierarchy.ruby_system.RequestType.Locked_RMW_Write.latency_hist_seqr::mean            1                       (Unspecified)
board.cache_hierarchy.ruby_system.RequestType.Locked_RMW_Write.latency_hist_seqr::gmean            1                       (Unspecified)
board.cache_hierarchy.ruby_system.RequestType.Locked_RMW_Write.latency_hist_seqr |           0      0.00%      0.00% |       32959    100.00%    100.00% |           0      0.00%    100.00% |           0      0.00%    100.00% |           0      0.00%    100.00% |           0      0.00%    100.00% |           0      0.00%    100.00% |           0      0.00%    100.00% |           0      0.00%    100.00% |           0      0.00%    100.00% (Unspecified)
board.cache_hierarchy.ruby_system.RequestType.Locked_RMW_Write.latency_hist_seqr::total        32959                       (Unspecified)
board.cache_hierarchy.ruby_system.RequestType.Locked_RMW_Write.hit_latency_hist_seqr::bucket_size            1                       (Unspecified)
board.cache_hierarchy.ruby_system.RequestType.Locked_RMW_Write.hit_latency_hist_seqr::max_bucket            9                       (Unspecified)
board.cache_hierarchy.ruby_system.RequestType.Locked_RMW_Write.hit_latency_hist_seqr::samples        32959                       (Unspecified)
board.cache_hierarchy.ruby_system.RequestType.Locked_RMW_Write.hit_latency_hist_seqr::mean            1                       (Unspecified)
board.cache_hierarchy.ruby_system.RequestType.Locked_RMW_Write.hit_latency_hist_seqr::gmean            1                       (Unspecified)
board.cache_hierarchy.ruby_system.RequestType.Locked_RMW_Write.hit_latency_hist_seqr |           0      0.00%      0.00% |       32959    100.00%    100.00% |           0      0.00%    100.00% |           0      0.00%    100.00% |           0      0.00%    100.00% |           0      0.00%    100.00% |           0      0.00%    100.00% |           0      0.00%    100.00% |           0      0.00%    100.00% |           0      0.00%    100.00% (Unspecified)
board.cache_hierarchy.ruby_system.RequestType.Locked_RMW_Write.hit_latency_hist_seqr::total        32959                       (Unspecified)
board.cache_hierarchy.ruby_system.directory_controllers.power_state.pwrStateResidencyTicks::UNDEFINED   1070493768                       # Cumulative time (in ticks) in various power states (Tick)
board.cache_hierarchy.ruby_system.directory_controllers.requestToDir.m_msg_count          623                       # Number of messages passed the buffer (Count)
board.cache_hierarchy.ruby_system.directory_controllers.requestToDir.m_buf_msgs     0.000255                       # Average number of messages in buffer ((Count/Tick))
board.cache_hierarchy.ruby_system.directory_controllers.requestToMemory.m_msg_count          623                       # Number of messages passed the buffer (Count)
board.cache_hierarchy.ruby_system.directory_controllers.requestToMemory.m_buf_msgs     0.000256                       # Average number of messages in buffer ((Count/Tick))
board.cache_hierarchy.ruby_system.directory_controllers.requestToMemory.m_stall_time          999                       # Total number of ticks messages were stalled in this buffer (Tick)
board.cache_hierarchy.ruby_system.directory_controllers.requestToMemory.m_avg_stall_time     1.603531                       # Average stall ticks per message ((Tick/Count))
board.cache_hierarchy.ruby_system.directory_controllers.responseFromDir.m_msg_count          623                       # Number of messages passed the buffer (Count)
board.cache_hierarchy.ruby_system.directory_controllers.responseFromDir.m_buf_msgs     0.000255                       # Average number of messages in buffer ((Count/Tick))
board.cache_hierarchy.ruby_system.directory_controllers.responseFromMemory.m_msg_count          623                       # Number of messages passed the buffer (Count)
board.cache_hierarchy.ruby_system.directory_controllers.responseFromMemory.m_buf_msgs     0.000379                       # Average number of messages in buffer ((Count/Tick))
board.cache_hierarchy.ruby_system.l1_controllers0.fullyBusyCycles           40                       # cycles for which number of transistions == max transitions (Unspecified)
board.cache_hierarchy.ruby_system.l1_controllers0.delayHistogram::samples         1060                       # delay_histogram (Unspecified)
board.cache_hierarchy.ruby_system.l1_controllers0.delayHistogram::mean     0.094340                       # delay_histogram (Unspecified)
board.cache_hierarchy.ruby_system.l1_controllers0.delayHistogram::stdev     0.771645                       # delay_histogram (Unspecified)
board.cache_hierarchy.ruby_system.l1_controllers0.delayHistogram::0         1041     98.21%     98.21% # delay_histogram (Unspecified)
board.cache_hierarchy.ruby_system.l1_controllers0.delayHistogram::2            5      0.47%     98.68% # delay_histogram (Unspecified)
board.cache_hierarchy.ruby_system.l1_controllers0.delayHistogram::4            4      0.38%     99.06% # delay_histogram (Unspecified)
board.cache_hierarchy.ruby_system.l1_controllers0.delayHistogram::6            3      0.28%     99.34% # delay_histogram (Unspecified)
board.cache_hierarchy.ruby_system.l1_controllers0.delayHistogram::8            7      0.66%    100.00% # delay_histogram (Unspecified)
board.cache_hierarchy.ruby_system.l1_controllers0.delayHistogram::total         1060                       # delay_histogram (Unspecified)
board.cache_hierarchy.ruby_system.l1_controllers0.L1Dcache.m_demand_hits         9390                       # Number of cache demand hits (Unspecified)
board.cache_hierarchy.ruby_system.l1_controllers0.L1Dcache.m_demand_misses          183                       # Number of cache demand misses (Unspecified)
board.cache_hierarchy.ruby_system.l1_controllers0.L1Dcache.m_demand_accesses         9573                       # Number of cache demand accesses (Unspecified)
board.cache_hierarchy.ruby_system.l1_controllers0.L1Icache.m_demand_hits         5757                       # Number of cache demand hits (Unspecified)
board.cache_hierarchy.ruby_system.l1_controllers0.L1Icache.m_demand_misses          302                       # Number of cache demand misses (Unspecified)
board.cache_hierarchy.ruby_system.l1_controllers0.L1Icache.m_demand_accesses         6059                       # Number of cache demand accesses (Unspecified)
board.cache_hierarchy.ruby_system.l1_controllers0.mandatoryQueue.m_msg_count        15632                       # Number of messages passed the buffer (Count)
board.cache_hierarchy.ruby_system.l1_controllers0.mandatoryQueue.m_buf_msgs     0.006393                       # Average number of messages in buffer ((Count/Tick))
board.cache_hierarchy.ruby_system.l1_controllers0.mandatoryQueue.m_stall_time         1332                       # Total number of ticks messages were stalled in this buffer (Tick)
board.cache_hierarchy.ruby_system.l1_controllers0.mandatoryQueue.m_avg_stall_time     0.085210                       # Average stall ticks per message ((Tick/Count))
board.cache_hierarchy.ruby_system.l1_controllers0.power_state.pwrStateResidencyTicks::UNDEFINED   1070493768                       # Cumulative time (in ticks) in various power states (Tick)
board.cache_hierarchy.ruby_system.l1_controllers0.prefetcher.RubyPrefetcher.numMissObserved            0                       # Number of misses observed (Unspecified)
board.cache_hierarchy.ruby_system.l1_controllers0.prefetcher.RubyPrefetcher.numAllocatedStreams            0                       # Number of streams allocated for prefetching (Unspecified)
board.cache_hierarchy.ruby_system.l1_controllers0.prefetcher.RubyPrefetcher.numPrefetchRequested            0                       # Number of prefetch requests made (Unspecified)
board.cache_hierarchy.ruby_system.l1_controllers0.prefetcher.RubyPrefetcher.numHits            0                       # Number of prefetched blocks accessed (for the first time) (Unspecified)
board.cache_hierarchy.ruby_system.l1_controllers0.prefetcher.RubyPrefetcher.numPartialHits            0                       # Number of misses observed for a block being prefetched (Unspecified)
board.cache_hierarchy.ruby_system.l1_controllers0.prefetcher.RubyPrefetcher.numPagesCrossed            0                       # Number of prefetches across pages (Unspecified)
board.cache_hierarchy.ruby_system.l1_controllers0.prefetcher.RubyPrefetcher.numMissedPrefetchedBlocks            0                       # Number of misses for blocks that were prefetched, yet missed (Unspecified)
board.cache_hierarchy.ruby_system.l1_controllers0.requestFromL1Cache.m_msg_count          639                       # Number of messages passed the buffer (Count)
board.cache_hierarchy.ruby_system.l1_controllers0.requestFromL1Cache.m_buf_msgs     0.000523                       # Average number of messages in buffer ((Count/Tick))
board.cache_hierarchy.ruby_system.l1_controllers0.requestToL1Cache.m_msg_count          417                       # Number of messages passed the buffer (Count)
board.cache_hierarchy.ruby_system.l1_controllers0.requestToL1Cache.m_buf_msgs     0.000170                       # Average number of messages in buffer ((Count/Tick))
board.cache_hierarchy.ruby_system.l1_controllers0.responseFromL1Cache.m_msg_count          797                       # Number of messages passed the buffer (Count)
board.cache_hierarchy.ruby_system.l1_controllers0.responseFromL1Cache.m_buf_msgs     0.000652                       # Average number of messages in buffer ((Count/Tick))
board.cache_hierarchy.ruby_system.l1_controllers0.responseToL1Cache.m_msg_count          643                       # Number of messages passed the buffer (Count)
board.cache_hierarchy.ruby_system.l1_controllers0.responseToL1Cache.m_buf_msgs     0.000263                       # Average number of messages in buffer ((Count/Tick))
board.cache_hierarchy.ruby_system.l1_controllers0.sequencer.power_state.pwrStateResidencyTicks::UNDEFINED   1070493768                       # Cumulative time (in ticks) in various power states (Tick)
board.cache_hierarchy.ruby_system.l1_controllers0.unblockFromL1Cache.m_msg_count          178                       # Number of messages passed the buffer (Count)
board.cache_hierarchy.ruby_system.l1_controllers0.unblockFromL1Cache.m_buf_msgs     0.000073                       # Average number of messages in buffer ((Count/Tick))
board.cache_hierarchy.ruby_system.l1_controllers1.fullyBusyCycles            1                       # cycles for which number of transistions == max transitions (Unspecified)
board.cache_hierarchy.ruby_system.l1_controllers1.delayHistogram::samples        17190                       # delay_histogram (Unspecified)
board.cache_hierarchy.ruby_system.l1_controllers1.delayHistogram::mean     0.009191                       # delay_histogram (Unspecified)
board.cache_hierarchy.ruby_system.l1_controllers1.delayHistogram::stdev     0.288890                       # delay_histogram (Unspecified)
board.cache_hierarchy.ruby_system.l1_controllers1.delayHistogram::0-1        17165     99.85%     99.85% # delay_histogram (Unspecified)
board.cache_hierarchy.ruby_system.l1_controllers1.delayHistogram::2-3            7      0.04%     99.90% # delay_histogram (Unspecified)
board.cache_hierarchy.ruby_system.l1_controllers1.delayHistogram::4-5            4      0.02%     99.92% # delay_histogram (Unspecified)
board.cache_hierarchy.ruby_system.l1_controllers1.delayHistogram::6-7            3      0.02%     99.94% # delay_histogram (Unspecified)
board.cache_hierarchy.ruby_system.l1_controllers1.delayHistogram::8-9            8      0.05%     99.98% # delay_histogram (Unspecified)
board.cache_hierarchy.ruby_system.l1_controllers1.delayHistogram::12-13            1      0.01%     99.99% # delay_histogram (Unspecified)
board.cache_hierarchy.ruby_system.l1_controllers1.delayHistogram::16-17            1      0.01%     99.99% # delay_histogram (Unspecified)
board.cache_hierarchy.ruby_system.l1_controllers1.delayHistogram::18-19            1      0.01%    100.00% # delay_histogram (Unspecified)
board.cache_hierarchy.ruby_system.l1_controllers1.delayHistogram::total        17190                       # delay_histogram (Unspecified)
board.cache_hierarchy.ruby_system.l1_controllers1.L1Dcache.m_demand_hits       140056                       # Number of cache demand hits (Unspecified)
board.cache_hierarchy.ruby_system.l1_controllers1.L1Dcache.m_demand_misses         8738                       # Number of cache demand misses (Unspecified)
board.cache_hierarchy.ruby_system.l1_controllers1.L1Dcache.m_demand_accesses       148794                       # Number of cache demand accesses (Unspecified)
board.cache_hierarchy.ruby_system.l1_controllers1.L1Icache.m_demand_hits       139822                       # Number of cache demand hits (Unspecified)
board.cache_hierarchy.ruby_system.l1_controllers1.L1Icache.m_demand_misses          189                       # Number of cache demand misses (Unspecified)
board.cache_hierarchy.ruby_system.l1_controllers1.L1Icache.m_demand_accesses       140011                       # Number of cache demand accesses (Unspecified)
board.cache_hierarchy.ruby_system.l1_controllers1.mandatoryQueue.m_msg_count       288805                       # Number of messages passed the buffer (Count)
board.cache_hierarchy.ruby_system.l1_controllers1.mandatoryQueue.m_buf_msgs     0.118083                       # Average number of messages in buffer ((Count/Tick))
board.cache_hierarchy.ruby_system.l1_controllers1.power_state.pwrStateResidencyTicks::UNDEFINED   1070493768                       # Cumulative time (in ticks) in various power states (Tick)
board.cache_hierarchy.ruby_system.l1_controllers1.prefetcher.RubyPrefetcher.numMissObserved            0                       # Number of misses observed (Unspecified)
board.cache_hierarchy.ruby_system.l1_controllers1.prefetcher.RubyPrefetcher.numAllocatedStreams            0                       # Number of streams allocated for prefetching (Unspecified)
board.cache_hierarchy.ruby_system.l1_controllers1.prefetcher.RubyPrefetcher.numPrefetchRequested            0                       # Number of prefetch requests made (Unspecified)
board.cache_hierarchy.ruby_system.l1_controllers1.prefetcher.RubyPrefetcher.numHits            0                       # Number of prefetched blocks accessed (for the first time) (Unspecified)
board.cache_hierarchy.ruby_system.l1_controllers1.prefetcher.RubyPrefetcher.numPartialHits            0                       # Number of misses observed for a block being prefetched (Unspecified)
board.cache_hierarchy.ruby_system.l1_controllers1.prefetcher.RubyPrefetcher.numPagesCrossed            0                       # Number of prefetches across pages (Unspecified)
board.cache_hierarchy.ruby_system.l1_controllers1.prefetcher.RubyPrefetcher.numMissedPrefetchedBlocks            0                       # Number of misses for blocks that were prefetched, yet missed (Unspecified)
board.cache_hierarchy.ruby_system.l1_controllers1.requestFromL1Cache.m_msg_count         9022                       # Number of messages passed the buffer (Count)
board.cache_hierarchy.ruby_system.l1_controllers1.requestFromL1Cache.m_buf_msgs     0.007378                       # Average number of messages in buffer ((Count/Tick))
board.cache_hierarchy.ruby_system.l1_controllers1.requestToL1Cache.m_msg_count         8156                       # Number of messages passed the buffer (Count)
board.cache_hierarchy.ruby_system.l1_controllers1.requestToL1Cache.m_buf_msgs     8.819925                       # Average number of messages in buffer ((Count/Tick))
board.cache_hierarchy.ruby_system.l1_controllers1.responseFromL1Cache.m_msg_count         8175                       # Number of messages passed the buffer (Count)
board.cache_hierarchy.ruby_system.l1_controllers1.responseFromL1Cache.m_buf_msgs     0.006685                       # Average number of messages in buffer ((Count/Tick))
board.cache_hierarchy.ruby_system.l1_controllers1.responseToL1Cache.m_msg_count         9034                       # Number of messages passed the buffer (Count)
board.cache_hierarchy.ruby_system.l1_controllers1.responseToL1Cache.m_buf_msgs     0.003694                       # Average number of messages in buffer ((Count/Tick))
board.cache_hierarchy.ruby_system.l1_controllers1.sequencer.power_state.pwrStateResidencyTicks::UNDEFINED   1070493768                       # Cumulative time (in ticks) in various power states (Tick)
board.cache_hierarchy.ruby_system.l1_controllers1.unblockFromL1Cache.m_msg_count         8737                       # Number of messages passed the buffer (Count)
board.cache_hierarchy.ruby_system.l1_controllers1.unblockFromL1Cache.m_buf_msgs     0.003572                       # Average number of messages in buffer ((Count/Tick))
board.cache_hierarchy.ruby_system.l1_controllers2.fullyBusyCycles            3                       # cycles for which number of transistions == max transitions (Unspecified)
board.cache_hierarchy.ruby_system.l1_controllers2.delayHistogram::samples        17344                       # delay_histogram (Unspecified)
board.cache_hierarchy.ruby_system.l1_controllers2.delayHistogram::mean     0.016144                       # delay_histogram (Unspecified)
board.cache_hierarchy.ruby_system.l1_controllers2.delayHistogram::stdev     0.372270                       # delay_histogram (Unspecified)
board.cache_hierarchy.ruby_system.l1_controllers2.delayHistogram::0-1        17297     99.73%     99.73% # delay_histogram (Unspecified)
board.cache_hierarchy.ruby_system.l1_controllers2.delayHistogram::2-3           12      0.07%     99.80% # delay_histogram (Unspecified)
board.cache_hierarchy.ruby_system.l1_controllers2.delayHistogram::4-5           10      0.06%     99.86% # delay_histogram (Unspecified)
board.cache_hierarchy.ruby_system.l1_controllers2.delayHistogram::6-7            9      0.05%     99.91% # delay_histogram (Unspecified)
board.cache_hierarchy.ruby_system.l1_controllers2.delayHistogram::8-9           11      0.06%     99.97% # delay_histogram (Unspecified)
board.cache_hierarchy.ruby_system.l1_controllers2.delayHistogram::10-11            2      0.01%     99.98% # delay_histogram (Unspecified)
board.cache_hierarchy.ruby_system.l1_controllers2.delayHistogram::18-19            3      0.02%    100.00% # delay_histogram (Unspecified)
board.cache_hierarchy.ruby_system.l1_controllers2.delayHistogram::total        17344                       # delay_histogram (Unspecified)
board.cache_hierarchy.ruby_system.l1_controllers2.L1Dcache.m_demand_hits       139940                       # Number of cache demand hits (Unspecified)
[...]
board.processor.cores4.core.executeStats0.numIntRegWrites       725124                       # Number of times the integer registers were written (Count)
board.processor.cores4.core.executeStats0.numMemRefs       288089                       # Number of memory refs (Count)
board.processor.cores4.core.executeStats0.numMiscRegReads       404076                       # Number of times the Misc registers were read (Count)
board.processor.cores4.core.executeStats0.numMiscRegWrites            1                       # Number of times the Misc registers were written (Count)
board.processor.cores4.core.executeStats0.numVecAluAccesses            0                       # Number of vector alu accesses (Count)
board.processor.cores4.core.executeStats0.numDiscardedOps            0                       # Number of ops (including micro ops) which were discarded before commit (Count)
board.processor.cores4.core.fetch.predictedBranches        74296                       # Number of branches that fetch has predicted taken (Count)
board.processor.cores4.core.fetch.cycles      2216890                       # Number of cycles fetch has run and was not squashing or blocked (Cycle)
board.processor.cores4.core.fetch.squashCycles        16858                       # Number of cycles fetch has spent squashing (Cycle)
board.processor.cores4.core.fetch.miscStallCycles           13                       # Number of cycles fetch has spent waiting on interrupts, or bad addresses, or out of MSHRs (Cycle)
board.processor.cores4.core.fetch.pendingTrapStallCycles          109                       # Number of stall cycles due to pending traps (Cycle)
board.processor.cores4.core.fetch.cacheLines       140077                       # Number of cache lines fetched (Count)
board.processor.cores4.core.fetch.icacheSquashes           98                       # Number of outstanding Icache misses that were squashed (Count)
board.processor.cores4.core.fetch.nisnDist::samples      2377683                       # Number of instructions fetched each cycle (Total) (Count)
board.processor.cores4.core.fetch.nisnDist::mean     0.689713                       # Number of instructions fetched each cycle (Total) (Count)
board.processor.cores4.core.fetch.nisnDist::stdev     2.092993                       # Number of instructions fetched each cycle (Total) (Count)
board.processor.cores4.core.fetch.nisnDist::underflows            0      0.00%      0.00% # Number of instructions fetched each cycle (Total) (Count)
board.processor.cores4.core.fetch.nisnDist::0      2105859     88.57%     88.57% # Number of instructions fetched each cycle (Total) (Count)
board.processor.cores4.core.fetch.nisnDist::1        16442      0.69%     89.26% # Number of instructions fetched each cycle (Total) (Count)
board.processor.cores4.core.fetch.nisnDist::2        32815      1.38%     90.64% # Number of instructions fetched each cycle (Total) (Count)
board.processor.cores4.core.fetch.nisnDist::3        16456      0.69%     91.33% # Number of instructions fetched each cycle (Total) (Count)
board.processor.cores4.core.fetch.nisnDist::4           93      0.00%     91.34% # Number of instructions fetched each cycle (Total) (Count)
board.processor.cores4.core.fetch.nisnDist::5         8333      0.35%     91.69% # Number of instructions fetched each cycle (Total) (Count)
board.processor.cores4.core.fetch.nisnDist::6        57445      2.42%     94.10% # Number of instructions fetched each cycle (Total) (Count)
board.processor.cores4.core.fetch.nisnDist::7          147      0.01%     94.11% # Number of instructions fetched each cycle (Total) (Count)
board.processor.cores4.core.fetch.nisnDist::8       140093      5.89%    100.00% # Number of instructions fetched each cycle (Total) (Count)
board.processor.cores4.core.fetch.nisnDist::overflows            0      0.00%    100.00% # Number of instructions fetched each cycle (Total) (Count)
board.processor.cores4.core.fetch.nisnDist::min_value            0                       # Number of instructions fetched each cycle (Total) (Count)
board.processor.cores4.core.fetch.nisnDist::max_value            8                       # Number of instructions fetched each cycle (Total) (Count)
board.processor.cores4.core.fetch.nisnDist::total      2377683                       # Number of instructions fetched each cycle (Total) (Count)
board.processor.cores4.core.fetchStats0.numInsts       963060                       # Number of instructions fetched (thread level) (Count)
board.processor.cores4.core.fetchStats0.numOps            0                       # Number of ops (including micro ops) fetched (thread level) (Count)
board.processor.cores4.core.fetchStats0.fetchRate     0.404709                       # Number of inst fetches per cycle ((Count/Cycle))
board.processor.cores4.core.fetchStats0.numBranches        99426                       # Number of branches fetched (Count)
board.processor.cores4.core.fetchStats0.branchRate     0.041782                       # Number of branch fetches per cycle (Ratio)
board.processor.cores4.core.fetchStats0.icacheStallCycles       152242                       # ICache total stall cycles (Cycle)
board.processor.cores4.core.fetchStats0.numFetchSuspends            0                       # Number of times Execute suspended instruction fetching (Count)
board.processor.cores4.core.iew.idleCycles            0                       # Number of cycles IEW is idle (Cycle)
board.processor.cores4.core.iew.squashCycles         8314                       # Number of cycles IEW is squashing (Cycle)
board.processor.cores4.core.iew.blockCycles      1933508                       # Number of cycles IEW is blocking (Cycle)
board.processor.cores4.core.iew.unblockCycles         9326                       # Number of cycles IEW is unblocking (Cycle)
board.processor.cores4.core.iew.dispatchedInsts      1252564                       # Number of instructions dispatched to IQ (Count)
board.processor.cores4.core.iew.dispSquashedInsts           17                       # Number of squashed instructions skipped by dispatch (Count)
board.processor.cores4.core.iew.dispLoadInsts       328747                       # Number of dispatched load instructions (Count)
board.processor.cores4.core.iew.dispStoreInsts        98950                       # Number of dispatched store instructions (Count)
board.processor.cores4.core.iew.dispNonSpecInsts        16407                       # Number of dispatched non-speculative instructions (Count)
board.processor.cores4.core.iew.iqFullEvents         1058                       # Number of times the IQ has become full, causing a stall (Count)
board.processor.cores4.core.iew.lsqFullEvents           74                       # Number of times the LSQ has become full, causing a stall (Count)
board.processor.cores4.core.iew.memOrderViolationEvents         8200                       # Number of memory order violations (Count)
board.processor.cores4.core.iew.predictedTakenIncorrect            7                       # Number of branches that were predicted taken incorrectly (Count)
board.processor.cores4.core.iew.predictedNotTakenIncorrect          114                       # Number of branches that were predicted not taken incorrectly (Count)
board.processor.cores4.core.iew.branchMispredicts          121                       # Number of branch mispredicts detected at execute (Count)
board.processor.cores4.core.iew.instsToCommit       890823                       # Cumulative count of insts sent to commit (Count)
board.processor.cores4.core.iew.writebackCount       890713                       # Cumulative count of insts written-back (Count)
board.processor.cores4.core.iew.producerInst       650448                       # Number of instructions producing a value (Count)
board.processor.cores4.core.iew.consumerInst       930168                       # Number of instructions consuming a value (Count)
board.processor.cores4.core.iew.wbRate       0.374306                       # Insts written-back per cycle ((Count/Cycle))
board.processor.cores4.core.iew.wbFanout     0.699280                       # Average fanout of values written-back ((Count/Count))
board.processor.cores4.core.interrupts.clk_domain.clock         5328                       # Clock period in ticks (Tick)
board.processor.cores4.core.lsq0.forwLoads        16570                       # Number of loads that had data forwarded from stores (Count)
board.processor.cores4.core.lsq0.squashedLoads       197104                       # Number of loads squashed (Count)
board.processor.cores4.core.lsq0.ignoredResponses            0                       # Number of memory responses ignored because the instruction is squashed (Count)
board.processor.cores4.core.lsq0.memOrderViolation         8200                       # Number of memory ordering violations (Count)
board.processor.cores4.core.lsq0.squashedStores        49357                       # Number of stores squashed (Count)
board.processor.cores4.core.lsq0.rescheduledLoads            0                       # Number of loads that were rescheduled (Count)
board.processor.cores4.core.lsq0.blockedByCache            1                       # Number of times an access to memory failed due to the cache being blocked (Count)
board.processor.cores4.core.lsq0.loadToUse::samples       131643                       # Distribution of cycle latency between the first time a load is issued and its completion (Unspecified)
board.processor.cores4.core.lsq0.loadToUse::mean    16.174320                       # Distribution of cycle latency between the first time a load is issued and its completion (Unspecified)
board.processor.cores4.core.lsq0.loadToUse::stdev    51.208737                       # Distribution of cycle latency between the first time a load is issued and its completion (Unspecified)
board.processor.cores4.core.lsq0.loadToUse::0-9       122927     93.38%     93.38% # Distribution of cycle latency between the first time a load is issued and its completion (Unspecified)
board.processor.cores4.core.lsq0.loadToUse::10-19           52      0.04%     93.42% # Distribution of cycle latency between the first time a load is issued and its completion (Unspecified)
board.processor.cores4.core.lsq0.loadToUse::20-29            1      0.00%     93.42% # Distribution of cycle latency between the first time a load is issued and its completion (Unspecified)
board.processor.cores4.core.lsq0.loadToUse::40-49           89      0.07%     93.49% # Distribution of cycle latency between the first time a load is issued and its completion (Unspecified)
board.processor.cores4.core.lsq0.loadToUse::50-59          157      0.12%     93.61% # Distribution of cycle latency between the first time a load is issued and its completion (Unspecified)
board.processor.cores4.core.lsq0.loadToUse::60-69          256      0.19%     93.80% # Distribution of cycle latency between the first time a load is issued and its completion (Unspecified)
board.processor.cores4.core.lsq0.loadToUse::70-79            9      0.01%     93.81% # Distribution of cycle latency between the first time a load is issued and its completion (Unspecified)
board.processor.cores4.core.lsq0.loadToUse::80-89           31      0.02%     93.83% # Distribution of cycle latency between the first time a load is issued and its completion (Unspecified)
board.processor.cores4.core.lsq0.loadToUse::90-99           41      0.03%     93.86% # Distribution of cycle latency between the first time a load is issued and its completion (Unspecified)
board.processor.cores4.core.lsq0.loadToUse::100-109            3      0.00%     93.86% # Distribution of cycle latency between the first time a load is issued and its completion (Unspecified)
board.processor.cores4.core.lsq0.loadToUse::110-119            1      0.00%     93.87% # Distribution of cycle latency between the first time a load is issued and its completion (Unspecified)
board.processor.cores4.core.lsq0.loadToUse::120-129            3      0.00%     93.87% # Distribution of cycle latency between the first time a load is issued and its completion (Unspecified)
board.processor.cores4.core.lsq0.loadToUse::130-139            1      0.00%     93.87% # Distribution of cycle latency between the first time a load is issued and its completion (Unspecified)
board.processor.cores4.core.lsq0.loadToUse::140-149            2      0.00%     93.87% # Distribution of cycle latency between the first time a load is issued and its completion (Unspecified)
board.processor.cores4.core.lsq0.loadToUse::150-159           10      0.01%     93.88% # Distribution of cycle latency between the first time a load is issued and its completion (Unspecified)
board.processor.cores4.core.lsq0.loadToUse::160-169          366      0.28%     94.16% # Distribution of cycle latency between the first time a load is issued and its completion (Unspecified)
board.processor.cores4.core.lsq0.loadToUse::170-179           67      0.05%     94.21% # Distribution of cycle latency between the first time a load is issued and its completion (Unspecified)
board.processor.cores4.core.lsq0.loadToUse::180-189           87      0.07%     94.27% # Distribution of cycle latency between the first time a load is issued and its completion (Unspecified)
board.processor.cores4.core.lsq0.loadToUse::190-199            3      0.00%     94.27% # Distribution of cycle latency between the first time a load is issued and its completion (Unspecified)
board.processor.cores4.core.lsq0.loadToUse::200-209           45      0.03%     94.31% # Distribution of cycle latency between the first time a load is issued and its completion (Unspecified)
board.processor.cores4.core.lsq0.loadToUse::210-219         7490      5.69%    100.00% # Distribution of cycle latency between the first time a load is issued and its completion (Unspecified)
board.processor.cores4.core.lsq0.loadToUse::220-229            1      0.00%    100.00% # Distribution of cycle latency between the first time a load is issued and its completion (Unspecified)
board.processor.cores4.core.lsq0.loadToUse::240-249            1      0.00%    100.00% # Distribution of cycle latency between the first time a load is issued and its completion (Unspecified)
board.processor.cores4.core.lsq0.loadToUse::min_value            2                       # Distribution of cycle latency between the first time a load is issued and its completion (Unspecified)
board.processor.cores4.core.lsq0.loadToUse::max_value          245                       # Distribution of cycle latency between the first time a load is issued and its completion (Unspecified)
board.processor.cores4.core.lsq0.loadToUse::total       131643                       # Distribution of cycle latency between the first time a load is issued and its completion (Unspecified)
board.processor.cores4.core.mmu.dtb.rdAccesses       221983                       # TLB accesses on read requests (Count)
board.processor.cores4.core.mmu.dtb.wrAccesses        66100                       # TLB accesses on write requests (Count)
board.processor.cores4.core.mmu.dtb.rdMisses           60                       # TLB misses on read requests (Count)
board.processor.cores4.core.mmu.dtb.wrMisses            9                       # TLB misses on write requests (Count)
board.processor.cores4.core.mmu.dtb.walker.power_state.pwrStateResidencyTicks::UNDEFINED   1070493768                       # Cumulative time (in ticks) in various power states (Tick)
board.processor.cores4.core.mmu.itb.rdAccesses            0                       # TLB accesses on read requests (Count)
board.processor.cores4.core.mmu.itb.wrAccesses       140093                       # TLB accesses on write requests (Count)
board.processor.cores4.core.mmu.itb.rdMisses            0                       # TLB misses on read requests (Count)
board.processor.cores4.core.mmu.itb.wrMisses           53                       # TLB misses on write requests (Count)
board.processor.cores4.core.mmu.itb.walker.power_state.pwrStateResidencyTicks::UNDEFINED   1070493768                       # Cumulative time (in ticks) in various power states (Tick)
board.processor.cores4.core.power_state.pwrStateResidencyTicks::ON   1070493768                       # Cumulative time (in ticks) in various power states (Tick)
board.processor.cores4.core.rename.squashCycles         8314                       # Number of cycles rename is squashing (Cycle)
board.processor.cores4.core.rename.idleCycles       102042                       # Number of cycles rename is idle (Cycle)
board.processor.cores4.core.rename.blockCycles      2002515                       # Number of cycles rename is blocking (Cycle)
board.processor.cores4.core.rename.serializeStallCycles            0                       # count of cycles rename stalled for serializing inst (Cycle)
board.processor.cores4.core.rename.runCycles       180886                       # Number of cycles rename is running (Cycle)
board.processor.cores4.core.rename.unblockCycles        83926                       # Number of cycles rename is unblocking (Cycle)
board.processor.cores4.core.rename.renamedInsts      1318594                       # Number of instructions processed by rename (Count)
board.processor.cores4.core.rename.ROBFullEvents            9                       # Number of times rename has blocked due to ROB full (Count)
board.processor.cores4.core.rename.IQFullEvents        66119                       # Number of times rename has blocked due to IQ full (Count)
board.processor.cores4.core.rename.LQFullEvents           88                       # Number of times rename has blocked due to LQ full (Count)
board.processor.cores4.core.rename.SQFullEvents          811                       # Number of times rename has blocked due to SQ full (Count)
board.processor.cores4.core.rename.renamedOperands      2026147                       # Number of destination operands rename has renamed (Count)
board.processor.cores4.core.rename.lookups      4028903                       # Number of register rename lookups that rename has made (Count)
board.processor.cores4.core.rename.intLookups      1540038                       # Number of integer rename lookups (Count)
board.processor.cores4.core.rename.fpLookups           27                       # Number of floating rename lookups (Count)
board.processor.cores4.core.rename.committedMaps       767754                       # Number of HB maps that are committed (Count)
board.processor.cores4.core.rename.undoneMaps      1258393                       # Number of HB maps that are undone due to squashing (Count)
board.processor.cores4.core.rename.serializing            0                       # count of serializing insts renamed (Count)
board.processor.cores4.core.rename.tempSerializing            0                       # count of temporary serializing insts renamed (Count)
board.processor.cores4.core.rename.skidInsts       264003                       # count of insts added to the skid buffer (Count)
board.processor.cores4.core.rob.reads         3507022                       # The number of ROB reads (Count)
board.processor.cores4.core.rob.writes        2603535                       # The number of ROB writes (Count)
board.processor.cores4.core.thread_0.numInsts       305060                       # Number of Instructions committed (Count)
board.processor.cores4.core.thread_0.numOps       520251                       # Number of Ops committed (Count)
board.processor.cores4.core.thread_0.numMemRefs            0                       # Number of Memory References (Count)
board.workload.inst.arm                             0                       # number of arm instructions executed (Count)
board.workload.inst.quiesce                         0                       # number of quiesce instructions executed (Count)

---------- End Simulation Statistics   ----------
