
---------- Begin Simulation Statistics ----------
simSeconds                                   0.000687                       # Number of seconds simulated (Second)
simTicks                                    686727252                       # Number of ticks simulated (Tick)
finalTick                                   949305078                       # Number of ticks from beginning of simulation (restored from checkpoints and never reset) (Tick)
simFreq                                  1000000000000                       # The number of ticks per simulated second ((Tick/Second))
hostSeconds                                     40.98                       # Real time elapsed on the host (Second)
hostTickRate                                 16758467                       # The number of ticks simulated per host second (ticks/s) ((Tick/Second))
hostMemory                                    1800516                       # Number of bytes of host memory used (Byte)
simInsts                                      1763274                       # Number of instructions simulated (Count)
simOps                                        2988166                       # Number of ops (including micro ops) simulated (Count)
hostInstRate                                    43030                       # Simulator instruction rate (inst/s) ((Count/Second))
hostOpRate                                      72921                       # Simulator op (including micro ops) rate (op/s) ((Count/Second))
board.cache_hierarchy.ruby_system.delayHistogram::bucket_size          512                       # delay histogram for all message (Unspecified)
board.cache_hierarchy.ruby_system.delayHistogram::max_bucket         5119                       # delay histogram for all message (Unspecified)
board.cache_hierarchy.ruby_system.delayHistogram::samples       151924                       # delay histogram for all message (Unspecified)
board.cache_hierarchy.ruby_system.delayHistogram::mean   679.235815                       # delay histogram for all message (Unspecified)
board.cache_hierarchy.ruby_system.delayHistogram::stdev  1556.285048                       # delay histogram for all message (Unspecified)
board.cache_hierarchy.ruby_system.delayHistogram |      127984     84.24%     84.24% |         254      0.17%     84.41% |         218      0.14%     84.55% |         285      0.19%     84.74% |         373      0.25%     84.99% |         131      0.09%     85.07% |         868      0.57%     85.64% |        1911      1.26%     86.90% |       16614     10.94%     97.84% |        3286      2.16%    100.00% # delay histogram for all message (Unspecified)
board.cache_hierarchy.ruby_system.delayHistogram::total       151924                       # delay histogram for all message (Unspecified)
board.cache_hierarchy.ruby_system.m_outstandReqHistSeqr::bucket_size            2                       (Unspecified)
board.cache_hierarchy.ruby_system.m_outstandReqHistSeqr::max_bucket           19                       (Unspecified)
board.cache_hierarchy.ruby_system.m_outstandReqHistSeqr::samples      1233252                       (Unspecified)
board.cache_hierarchy.ruby_system.m_outstandReqHistSeqr::mean     1.133733                       (Unspecified)
board.cache_hierarchy.ruby_system.m_outstandReqHistSeqr::gmean     1.091184                       (Unspecified)
board.cache_hierarchy.ruby_system.m_outstandReqHistSeqr::stdev     0.412833                       (Unspecified)
board.cache_hierarchy.ruby_system.m_outstandReqHistSeqr |     1087728     88.20%     88.20% |      141277     11.46%     99.66% |        3755      0.30%     99.96% |         315      0.03%     99.99% |          81      0.01%     99.99% |          33      0.00%     99.99% |          36      0.00%    100.00% |          20      0.00%    100.00% |           7      0.00%    100.00% |           0      0.00%    100.00% (Unspecified)
board.cache_hierarchy.ruby_system.m_outstandReqHistSeqr::total      1233252                       (Unspecified)
board.cache_hierarchy.ruby_system.m_latencyHistSeqr::bucket_size          256                       (Unspecified)
board.cache_hierarchy.ruby_system.m_latencyHistSeqr::max_bucket         2559                       (Unspecified)
board.cache_hierarchy.ruby_system.m_latencyHistSeqr::samples      1233748                       (Unspecified)
board.cache_hierarchy.ruby_system.m_latencyHistSeqr::mean    19.909316                       (Unspecified)
board.cache_hierarchy.ruby_system.m_latencyHistSeqr::gmean     1.213732                       (Unspecified)
board.cache_hierarchy.ruby_system.m_latencyHistSeqr::stdev   121.235041                       (Unspecified)
board.cache_hierarchy.ruby_system.m_latencyHistSeqr |     1202461     97.46%     97.46% |        7664      0.62%     98.09% |        1727      0.14%     98.23% |       21881      1.77%    100.00% |          12      0.00%    100.00% |           3      0.00%    100.00% |           0      0.00%    100.00% |           0      0.00%    100.00% |           0      0.00%    100.00% |           0      0.00%    100.00% (Unspecified)
board.cache_hierarchy.ruby_system.m_latencyHistSeqr::total      1233748                       (Unspecified)
board.cache_hierarchy.ruby_system.m_hitLatencyHistSeqr::bucket_size           32                       (Unspecified)
board.cache_hierarchy.ruby_system.m_hitLatencyHistSeqr::max_bucket          319                       (Unspecified)
board.cache_hierarchy.ruby_system.m_hitLatencyHistSeqr::samples      1194119                       (Unspecified)
board.cache_hierarchy.ruby_system.m_hitLatencyHistSeqr::mean     1.000963                       (Unspecified)
board.cache_hierarchy.ruby_system.m_hitLatencyHistSeqr::gmean     1.000300                       (Unspecified)
board.cache_hierarchy.ruby_system.m_hitLatencyHistSeqr::stdev     0.305960                       (Unspecified)
board.cache_hierarchy.ruby_system.m_hitLatencyHistSeqr |     1194115    100.00%    100.00% |           0      0.00%    100.00% |           0      0.00%    100.00% |           0      0.00%    100.00% |           2      0.00%    100.00% |           1      0.00%    100.00% |           1      0.00%    100.00% |           0      0.00%    100.00% |           0      0.00%    100.00% |           0      0.00%    100.00% (Unspecified)
board.cache_hierarchy.ruby_system.m_hitLatencyHistSeqr::total      1194119                       (Unspecified)
board.cache_hierarchy.ruby_system.m_missLatencyHistSeqr::bucket_size          256                       (Unspecified)
board.cache_hierarchy.ruby_system.m_missLatencyHistSeqr::max_bucket         2559                       (Unspecified)
board.cache_hierarchy.ruby_system.m_missLatencyHistSeqr::samples        39629                       (Unspecified)
board.cache_hierarchy.ruby_system.m_missLatencyHistSeqr::mean   589.664387                       (Unspecified)
board.cache_hierarchy.ruby_system.m_missLatencyHistSeqr::gmean   412.125642                       (Unspecified)
board.cache_hierarchy.ruby_system.m_missLatencyHistSeqr::stdev   349.555007                       (Unspecified)
board.cache_hierarchy.ruby_system.m_missLatencyHistSeqr |        8342     21.05%     21.05% |        7664     19.34%     40.39% |        1727      4.36%     44.75% |       21881     55.21%     99.96% |          12      0.03%     99.99% |           3      0.01%    100.00% |           0      0.00%    100.00% |           0      0.00%    100.00% |           0      0.00%    100.00% |           0      0.00%    100.00% (Unspecified)
board.cache_hierarchy.ruby_system.m_missLatencyHistSeqr::total        39629                       (Unspecified)
board.cache_hierarchy.ruby_system.delayVCHist.vnet_0::bucket_size          512                       # delay histogram for vnet_0 (Unspecified)
board.cache_hierarchy.ruby_system.delayVCHist.vnet_0::max_bucket         5119                       # delay histogram for vnet_0 (Unspecified)
board.cache_hierarchy.ruby_system.delayVCHist.vnet_0::samples        76280                       # delay histogram for vnet_0 (Unspecified)
board.cache_hierarchy.ruby_system.delayVCHist.vnet_0::mean  1352.751285                       # delay histogram for vnet_0 (Unspecified)
board.cache_hierarchy.ruby_system.delayVCHist.vnet_0::stdev  1978.082690                       # delay histogram for vnet_0 (Unspecified)
board.cache_hierarchy.ruby_system.delayVCHist.vnet_0 |       52340     68.62%     68.62% |         254      0.33%     68.95% |         218      0.29%     69.23% |         285      0.37%     69.61% |         373      0.49%     70.10% |         131      0.17%     70.27% |         868      1.14%     71.41% |        1911      2.51%     73.91% |       16614     21.78%     95.69% |        3286      4.31%    100.00% # delay histogram for vnet_0 (Unspecified)
board.cache_hierarchy.ruby_system.delayVCHist.vnet_0::total        76280                       # delay histogram for vnet_0 (Unspecified)
board.cache_hierarchy.ruby_system.delayVCHist.vnet_1::bucket_size            4                       # delay histogram for vnet_1 (Unspecified)
board.cache_hierarchy.ruby_system.delayVCHist.vnet_1::max_bucket           39                       # delay histogram for vnet_1 (Unspecified)
board.cache_hierarchy.ruby_system.delayVCHist.vnet_1::samples        41997                       # delay histogram for vnet_1 (Unspecified)
board.cache_hierarchy.ruby_system.delayVCHist.vnet_1::mean     0.103674                       # delay histogram for vnet_1 (Unspecified)
board.cache_hierarchy.ruby_system.delayVCHist.vnet_1::stdev     0.905064                       # delay histogram for vnet_1 (Unspecified)
board.cache_hierarchy.ruby_system.delayVCHist.vnet_1 |       41434     98.66%     98.66% |         225      0.54%     99.20% |         307      0.73%     99.93% |           7      0.02%     99.94% |          20      0.05%     99.99% |           0      0.00%     99.99% |           4      0.01%    100.00% |           0      0.00%    100.00% |           0      0.00%    100.00% |           0      0.00%    100.00% # delay histogram for vnet_1 (Unspecified)
board.cache_hierarchy.ruby_system.delayVCHist.vnet_1::total        41997                       # delay histogram for vnet_1 (Unspecified)
board.cache_hierarchy.ruby_system.delayVCHist.vnet_2::bucket_size            1                       # delay histogram for vnet_2 (Unspecified)
board.cache_hierarchy.ruby_system.delayVCHist.vnet_2::max_bucket            9                       # delay histogram for vnet_2 (Unspecified)
board.cache_hierarchy.ruby_system.delayVCHist.vnet_2::samples        33647                       # delay histogram for vnet_2 (Unspecified)
board.cache_hierarchy.ruby_system.delayVCHist.vnet_2 |       33647    100.00%    100.00% |           0      0.00%    100.00% |           0      0.00%    100.00% |           0      0.00%    100.00% |           0      0.00%    100.00% |           0      0.00%    100.00% |           0      0.00%    100.00% |           0      0.00%    100.00% |           0      0.00%    100.00% |           0      0.00%    100.00% # delay histogram for vnet_2 (Unspecified)
board.cache_hierarchy.ruby_system.delayVCHist.vnet_2::total        33647                       # delay histogram for vnet_2 (Unspecified)
board.cache_hierarchy.ruby_system.Directory_Controller.Fetch         1145      0.00%      0.00% (Unspecified)
board.cache_hierarchy.ruby_system.Directory_Controller.Memory_Data         1145      0.00%      0.00% (Unspecified)
board.cache_hierarchy.ruby_system.Directory_Controller.I.Fetch         1145      0.00%      0.00% (Unspecified)
board.cache_hierarchy.ruby_system.Directory_Controller.IM.Memory_Data         1145      0.00%      0.00% (Unspecified)
board.cache_hierarchy.ruby_system.L1Cache_Controller.Load |       12774      3.66%      3.66% |       21053      6.02%      9.68% |       21032      6.02%     15.70% |       21033      6.02%     21.72% |       21037      6.02%     27.74% |       21047      6.02%     33.76% |       21035      6.02%     39.78% |       21032      6.02%     45.80% |       21036      6.02%     51.82% |       21039      6.02%     57.84% |       21038      6.02%     63.86% |       21033      6.02%     69.88% |       21066      6.03%     75.90% |       21059      6.03%     81.93% |       21064      6.03%     87.96% |       21029      6.02%     93.98% |       21054      6.02%    100.00% (Unspecified)
board.cache_hierarchy.ruby_system.L1Cache_Controller.Load::total       349461                       (Unspecified)
board.cache_hierarchy.ruby_system.L1Cache_Controller.Ifetch |       21906      3.70%      3.70% |       35541      6.01%      9.71% |       35572      6.02%     15.73% |       35574      6.02%     21.75% |       35576      6.02%     27.76% |       35579      6.02%     33.78% |       35575      6.02%     39.79% |       35582      6.02%     45.81% |       35582      6.02%     51.83% |       35584      6.02%     57.85% |       35579      6.02%     63.86% |       35579      6.02%     69.88% |       35634      6.03%     75.91% |       35606      6.02%     81.93% |       35655      6.03%     87.96% |       35589      6.02%     93.97% |       35633      6.03%    100.00% (Unspecified)
board.cache_hierarchy.ruby_system.L1Cache_Controller.Ifetch::total       591346                       (Unspecified)
board.cache_hierarchy.ruby_system.L1Cache_Controller.Store |       22322      7.62%      7.62% |       16841      5.75%     13.37% |       16841      5.75%     19.12% |       16841      5.75%     24.87% |       16841      5.75%     30.62% |       16841      5.75%     36.36% |       16841      5.75%     42.11% |       16841      5.75%     47.86% |       16841      5.75%     53.61% |       16841      5.75%     59.36% |       16841      5.75%     65.11% |       16841      5.75%     70.86% |       17132      5.85%     76.71% |       17132      5.85%     82.55% |       17132      5.85%     88.40% |       16841      5.75%     94.15% |       17132      5.85%    100.00% (Unspecified)
board.cache_hierarchy.ruby_system.L1Cache_Controller.Store::total       292942                       (Unspecified)
board.cache_hierarchy.ruby_system.L1Cache_Controller.Inv |          81     31.03%     31.03% |          10      3.83%     34.87% |          10      3.83%     38.70% |          11      4.21%     42.91% |          11      4.21%     47.13% |          12      4.60%     51.72% |          10      3.83%     55.56% |          12      4.60%     60.15% |          12      4.60%     64.75% |          13      4.98%     69.73% |           9      3.45%     73.18% |          12      4.60%     77.78% |           9      3.45%     81.23% |          12      4.60%     85.82% |          12      4.60%     90.42% |          13      4.98%     95.40% |          12      4.60%    100.00% (Unspecified)
board.cache_hierarchy.ruby_system.L1Cache_Controller.Inv::total          261                       (Unspecified)
board.cache_hierarchy.ruby_system.L1Cache_Controller.L1_Replacement |         895     99.56%     99.56% |           0      0.00%     99.56% |           0      0.00%     99.56% |           0      0.00%     99.56% |           0      0.00%     99.56% |           2      0.22%     99.78% |           0      0.00%     99.78% |           0      0.00%     99.78% |           0      0.00%     99.78% |           2      0.22%    100.00% |           0      0.00%    100.00% |           0      0.00%    100.00% |           0      0.00%    100.00% |           0      0.00%    100.00% |           0      0.00%    100.00% |           0      0.00%    100.00% |           0      0.00%    100.00% (Unspecified)
board.cache_hierarchy.ruby_system.L1Cache_Controller.L1_Replacement::total          899                       (Unspecified)
board.cache_hierarchy.ruby_system.L1Cache_Controller.Fwd_GETX |          41      0.13%      0.13% |        1985      6.06%      6.18% |        2056      6.27%     12.45% |        2061      6.29%     18.74% |        2061      6.29%     25.03% |        2061      6.29%     31.32% |        2061      6.29%     37.61% |        2061      6.29%     43.89% |        2062      6.29%     50.19% |        2050      6.25%     56.44% |        2050      6.25%     62.70% |        2049      6.25%     68.95% |        2043      6.23%     75.18% |        1983      6.05%     81.23% |        2059      6.28%     87.51% |        2059      6.28%     93.79% |        2034      6.21%    100.00% (Unspecified)
board.cache_hierarchy.ruby_system.L1Cache_Controller.Fwd_GETX::total        32776                       (Unspecified)
board.cache_hierarchy.ruby_system.L1Cache_Controller.Fwd_GETS |         411     67.38%     67.38% |          14      2.30%     69.67% |          14      2.30%     71.97% |          13      2.13%     74.10% |          13      2.13%     76.23% |          13      2.13%     78.36% |          14      2.30%     80.66% |          14      2.30%     82.95% |          13      2.13%     85.08% |           8      1.31%     86.39% |           9      1.48%     87.87% |          10      1.64%     89.51% |           9      1.48%     90.98% |          18      2.95%     93.93% |          13      2.13%     96.07% |          11      1.80%     97.87% |          13      2.13%    100.00% (Unspecified)
board.cache_hierarchy.ruby_system.L1Cache_Controller.Fwd_GETS::total          610                       (Unspecified)
board.cache_hierarchy.ruby_system.L1Cache_Controller.Data |           0      0.00%      0.00% |           0      0.00%      0.00% |           0      0.00%      0.00% |           0      0.00%      0.00% |           0      0.00%      0.00% |           0      0.00%      0.00% |           0      0.00%      0.00% |           0      0.00%      0.00% |           0      0.00%      0.00% |           1     33.33%     33.33% |           0      0.00%     33.33% |           0      0.00%     33.33% |           1     33.33%     66.67% |           0      0.00%     66.67% |           1     33.33%    100.00% |           0      0.00%    100.00% |           0      0.00%    100.00% (Unspecified)
board.cache_hierarchy.ruby_system.L1Cache_Controller.Data::total            3                       (Unspecified)
board.cache_hierarchy.ruby_system.L1Cache_Controller.Data_Exclusive |          75      3.87%      3.87% |         134      6.91%     10.77% |         134      6.91%     17.68% |         132      6.80%     24.48% |         133      6.86%     31.34% |         133      6.86%     38.20% |         133      6.86%     45.05% |         133      6.86%     51.91% |         133      6.86%     58.76% |         132      6.80%     65.57% |         132      6.80%     72.37% |         132      6.80%     79.18% |         132      6.80%     85.98% |         129      6.65%     92.63% |          73      3.76%     96.39% |          33      1.70%     98.09% |          37      1.91%    100.00% (Unspecified)
board.cache_hierarchy.ruby_system.L1Cache_Controller.Data_Exclusive::total         1940                       (Unspecified)
board.cache_hierarchy.ruby_system.L1Cache_Controller.DataS_fromL1 |          50      8.20%      8.20% |          21      3.44%     11.64% |          19      3.11%     14.75% |          18      2.95%     17.70% |          19      3.11%     20.82% |          19      3.11%     23.93% |          16      2.62%     26.56% |          18      2.95%     29.51% |          20      3.28%     32.79% |          22      3.61%     36.39% |          18      2.95%     39.34% |          19      3.11%     42.46% |          15      2.46%     44.92% |          24      3.93%     48.85% |          77     12.62%     61.48% |         124     20.33%     81.80% |         111     18.20%    100.00% (Unspecified)
board.cache_hierarchy.ruby_system.L1Cache_Controller.DataS_fromL1::total          610                       (Unspecified)
board.cache_hierarchy.ruby_system.L1Cache_Controller.Data_all_Acks |         800      2.17%      2.17% |        2170      5.89%      8.06% |        2242      6.08%     14.14% |        2250      6.11%     20.25% |        2249      6.10%     26.35% |        2253      6.11%     32.47% |        2253      6.11%     38.58% |        2255      6.12%     44.70% |        2252      6.11%     50.81% |        2255      6.12%     56.93% |        2252      6.11%     63.04% |        2251      6.11%     69.15% |        2309      6.27%     75.42% |        2224      6.04%     81.45% |        2307      6.26%     87.71% |        2242      6.08%     93.80% |        2286      6.20%    100.00% (Unspecified)
board.cache_hierarchy.ruby_system.L1Cache_Controller.Data_all_Acks::total        36850                       (Unspecified)
board.cache_hierarchy.ruby_system.L1Cache_Controller.Ack |          37     14.34%     14.34% |          12      4.65%     18.99% |          14      5.43%     24.42% |          12      4.65%     29.07% |          13      5.04%     34.11% |          12      4.65%     38.76% |          13      5.04%     43.80% |          14      5.43%     49.22% |          13      5.04%     54.26% |          16      6.20%     60.47% |          20      7.75%     68.22% |          15      5.81%     74.03% |          21      8.14%     82.17% |          11      4.26%     86.43% |          12      4.65%     91.09% |          13      5.04%     96.12% |          10      3.88%    100.00% (Unspecified)
board.cache_hierarchy.ruby_system.L1Cache_Controller.Ack::total          258                       (Unspecified)
board.cache_hierarchy.ruby_system.L1Cache_Controller.Ack_all |          34     14.85%     14.85% |          12      5.24%     20.09% |          13      5.68%     25.76% |          12      5.24%     31.00% |          13      5.68%     36.68% |          12      5.24%     41.92% |          12      5.24%     47.16% |          13      5.68%     52.84% |          13      5.68%     58.52% |          13      5.68%     64.19% |          14      6.11%     70.31% |          13      5.68%     75.98% |          10      4.37%     80.35% |          11      4.80%     85.15% |          12      5.24%     90.39% |          13      5.68%     96.07% |           9      3.93%    100.00% (Unspecified)
board.cache_hierarchy.ruby_system.L1Cache_Controller.Ack_all::total          229                       (Unspecified)
board.cache_hierarchy.ruby_system.L1Cache_Controller.WB_Ack |         352    100.00%    100.00% |           0      0.00%    100.00% |           0      0.00%    100.00% |           0      0.00%    100.00% |           0      0.00%    100.00% |           0      0.00%    100.00% |           0      0.00%    100.00% |           0      0.00%    100.00% |           0      0.00%    100.00% |           0      0.00%    100.00% |           0      0.00%    100.00% |           0      0.00%    100.00% |           0      0.00%    100.00% |           0      0.00%    100.00% |           0      0.00%    100.00% |           0      0.00%    100.00% |           0      0.00%    100.00% (Unspecified)
board.cache_hierarchy.ruby_system.L1Cache_Controller.WB_Ack::total          352                       (Unspecified)
board.cache_hierarchy.ruby_system.L1Cache_Controller.NP.Load |         150      5.47%      5.47% |         162      5.91%     11.39% |         163      5.95%     17.34% |         162      5.91%     23.25% |         163      5.95%     29.20% |         164      5.99%     35.18% |         162      5.91%     41.09% |         163      5.95%     47.04% |         163      5.95%     52.99% |         163      5.95%     58.94% |         162      5.91%     64.85% |         162      5.91%     70.77% |         159      5.80%     76.57% |         158      5.77%     82.34% |         160      5.84%     88.18% |         164      5.99%     94.16% |         160      5.84%    100.00% (Unspecified)
board.cache_hierarchy.ruby_system.L1Cache_Controller.NP.Load::total         2740                       (Unspecified)
board.cache_hierarchy.ruby_system.L1Cache_Controller.NP.Ifetch |         351     11.38%     11.38% |         164      5.32%     16.70% |         162      5.25%     21.95% |         163      5.29%     27.24% |         163      5.29%     32.52% |         165      5.35%     37.87% |         165      5.35%     43.22% |         167      5.42%     48.64% |         165      5.35%     53.99% |         166      5.38%     59.37% |         164      5.32%     64.69% |         162      5.25%     69.94% |         192      6.23%     76.17% |         189      6.13%     82.30% |         192      6.23%     88.52% |         162      5.25%     93.77% |         192      6.23%    100.00% (Unspecified)
board.cache_hierarchy.ruby_system.L1Cache_Controller.NP.Ifetch::total         3084                       (Unspecified)
board.cache_hierarchy.ruby_system.L1Cache_Controller.NP.Store |         392     41.13%     41.13% |          27      2.83%     43.97% |          27      2.83%     46.80% |          27      2.83%     49.63% |          27      2.83%     52.47% |          27      2.83%     55.30% |          27      2.83%     58.13% |          27      2.83%     60.97% |          27      2.83%     63.80% |          27      2.83%     66.63% |          27      2.83%     69.46% |          27      2.83%     72.30% |          60      6.30%     78.59% |          60      6.30%     84.89% |          59      6.19%     91.08% |          26      2.73%     93.81% |          59      6.19%    100.00% (Unspecified)
board.cache_hierarchy.ruby_system.L1Cache_Controller.NP.Store::total          953                       (Unspecified)
board.cache_hierarchy.ruby_system.L1Cache_Controller.NP.Inv |          12    100.00%    100.00% |           0      0.00%    100.00% |           0      0.00%    100.00% |           0      0.00%    100.00% |           0      0.00%    100.00% |           0      0.00%    100.00% |           0      0.00%    100.00% |           0      0.00%    100.00% |           0      0.00%    100.00% |           0      0.00%    100.00% |           0      0.00%    100.00% |           0      0.00%    100.00% |           0      0.00%    100.00% |           0      0.00%    100.00% |           0      0.00%    100.00% |           0      0.00%    100.00% |           0      0.00%    100.00% (Unspecified)
board.cache_hierarchy.ruby_system.L1Cache_Controller.NP.Inv::total           12                       (Unspecified)
board.cache_hierarchy.ruby_system.L1Cache_Controller.I.Load |          30     53.57%     53.57% |           0      0.00%     53.57% |           1      1.79%     55.36% |           0      0.00%     55.36% |           1      1.79%     57.14% |           1      1.79%     58.93% |           0      0.00%     58.93% |           1      1.79%     60.71% |           2      3.57%     64.29% |           6     10.71%     75.00% |           2      3.57%     78.57% |           3      5.36%     83.93% |           3      5.36%     89.29% |           1      1.79%     91.07% |           2      3.57%     94.64% |           2      3.57%     98.21% |           1      1.79%    100.00% (Unspecified)
board.cache_hierarchy.ruby_system.L1Cache_Controller.I.Load::total           56                       (Unspecified)
board.cache_hierarchy.ruby_system.L1Cache_Controller.I.Store |           2      0.01%      0.01% |        1972      6.05%      6.06% |        2042      6.27%     12.33% |        2048      6.29%     18.62% |        2047      6.29%     24.90% |        2048      6.29%     31.19% |        2048      6.29%     37.48% |        2048      6.29%     43.77% |        2048      6.29%     50.06% |        2048      6.29%     56.34% |        2047      6.29%     62.63% |        2048      6.29%     68.92% |        2042      6.27%     75.19% |        1969      6.05%     81.23% |        2045      6.28%     87.51% |        2045      6.28%     93.79% |        2022      6.21%    100.00% (Unspecified)
board.cache_hierarchy.ruby_system.L1Cache_Controller.I.Store::total        32569                       (Unspecified)
board.cache_hierarchy.ruby_system.L1Cache_Controller.I.L1_Replacement |          58    100.00%    100.00% |           0      0.00%    100.00% |           0      0.00%    100.00% |           0      0.00%    100.00% |           0      0.00%    100.00% |           0      0.00%    100.00% |           0      0.00%    100.00% |           0      0.00%    100.00% |           0      0.00%    100.00% |           0      0.00%    100.00% |           0      0.00%    100.00% |           0      0.00%    100.00% |           0      0.00%    100.00% |           0      0.00%    100.00% |           0      0.00%    100.00% |           0      0.00%    100.00% |           0      0.00%    100.00% (Unspecified)
board.cache_hierarchy.ruby_system.L1Cache_Controller.I.L1_Replacement::total           58                       (Unspecified)
board.cache_hierarchy.ruby_system.L1Cache_Controller.S.Load |         293      5.56%      5.56% |          62      1.18%      6.73% |          68      1.29%      8.02% |          65      1.23%      9.25% |          65      1.23%     10.49% |          66      1.25%     11.74% |          66      1.25%     12.99% |          63      1.19%     14.18% |          79      1.50%     15.68% |          70      1.33%     17.01% |          79      1.50%     18.51% |          77      1.46%     19.97% |          72      1.37%     21.33% |         151      2.86%     24.19% |         962     18.24%     42.43% |        1547     29.33%     71.77% |        1489     28.23%    100.00% (Unspecified)
board.cache_hierarchy.ruby_system.L1Cache_Controller.S.Load::total         5274                       (Unspecified)
board.cache_hierarchy.ruby_system.L1Cache_Controller.S.Ifetch |       21554      3.66%      3.66% |       35377      6.01%      9.68% |       35410      6.02%     15.70% |       35411      6.02%     21.72% |       35413      6.02%     27.74% |       35414      6.02%     33.76% |       35410      6.02%     39.78% |       35415      6.02%     45.80% |       35417      6.02%     51.82% |       35418      6.02%     57.84% |       35415      6.02%     63.86% |       35417      6.02%     69.88% |       35442      6.02%     75.90% |       35417      6.02%     81.92% |       35463      6.03%     87.95% |       35427      6.02%     93.98% |       35441      6.02%    100.00% (Unspecified)
board.cache_hierarchy.ruby_system.L1Cache_Controller.S.Ifetch::total       588261                       (Unspecified)
board.cache_hierarchy.ruby_system.L1Cache_Controller.S.Store |          34     14.98%     14.98% |          12      5.29%     20.26% |          13      5.73%     25.99% |          12      5.29%     31.28% |          13      5.73%     37.00% |          12      5.29%     42.29% |          12      5.29%     47.58% |          13      5.73%     53.30% |          13      5.73%     59.03% |          12      5.29%     64.32% |          14      6.17%     70.48% |          13      5.73%     76.21% |          10      4.41%     80.62% |          11      4.85%     85.46% |          11      4.85%     90.31% |          13      5.73%     96.04% |           9      3.96%    100.00% (Unspecified)
board.cache_hierarchy.ruby_system.L1Cache_Controller.S.Store::total          227                       (Unspecified)
board.cache_hierarchy.ruby_system.L1Cache_Controller.S.Inv |          69     27.82%     27.82% |          10      4.03%     31.85% |          10      4.03%     35.89% |          11      4.44%     40.32% |          11      4.44%     44.76% |          12      4.84%     49.60% |          10      4.03%     53.63% |          12      4.84%     58.47% |          12      4.84%     63.31% |          13      5.24%     68.55% |           9      3.63%     72.18% |          12      4.84%     77.02% |           8      3.23%     80.24% |          12      4.84%     85.08% |          12      4.84%     89.92% |          13      5.24%     95.16% |          12      4.84%    100.00% (Unspecified)
board.cache_hierarchy.ruby_system.L1Cache_Controller.S.Inv::total          248                       (Unspecified)
board.cache_hierarchy.ruby_system.L1Cache_Controller.S.L1_Replacement |         485     99.18%     99.18% |           0      0.00%     99.18% |           0      0.00%     99.18% |           0      0.00%     99.18% |           0      0.00%     99.18% |           2      0.41%     99.59% |           0      0.00%     99.59% |           0      0.00%     99.59% |           0      0.00%     99.59% |           2      0.41%    100.00% |           0      0.00%    100.00% |           0      0.00%    100.00% |           0      0.00%    100.00% |           0      0.00%    100.00% |           0      0.00%    100.00% |           0      0.00%    100.00% |           0      0.00%    100.00% (Unspecified)
board.cache_hierarchy.ruby_system.L1Cache_Controller.S.L1_Replacement::total          489                       (Unspecified)
board.cache_hierarchy.ruby_system.L1Cache_Controller.E.Load |        1745      6.11%      6.11% |        1916      6.71%     12.83% |        1917      6.72%     19.54% |        1916      6.71%     26.26% |        1916      6.71%     32.97% |        1916      6.71%     39.68% |        1920      6.73%     46.41% |        1916      6.71%     53.12% |        1916      6.71%     59.83% |        1916      6.71%     66.55% |        1916      6.71%     73.26% |        1916      6.71%     79.97% |        1916      6.71%     86.68% |        1836      6.43%     93.12% |        1035      3.63%     96.74% |         435      1.52%     98.27% |         495      1.73%    100.00% (Unspecified)
board.cache_hierarchy.ruby_system.L1Cache_Controller.E.Load::total        28543                       (Unspecified)
board.cache_hierarchy.ruby_system.L1Cache_Controller.E.Store |          21     87.50%     87.50% |           0      0.00%     87.50% |           0      0.00%     87.50% |           0      0.00%     87.50% |           0      0.00%     87.50% |           0      0.00%     87.50% |           0      0.00%     87.50% |           0      0.00%     87.50% |           0      0.00%     87.50% |           0      0.00%     87.50% |           0      0.00%     87.50% |           0      0.00%     87.50% |           0      0.00%     87.50% |           0      0.00%     87.50% |           1      4.17%     91.67% |           1      4.17%     95.83% |           1      4.17%    100.00% (Unspecified)
board.cache_hierarchy.ruby_system.L1Cache_Controller.E.Store::total           24                       (Unspecified)
board.cache_hierarchy.ruby_system.L1Cache_Controller.E.L1_Replacement |          13    100.00%    100.00% |           0      0.00%    100.00% |           0      0.00%    100.00% |           0      0.00%    100.00% |           0      0.00%    100.00% |           0      0.00%    100.00% |           0      0.00%    100.00% |           0      0.00%    100.00% |           0      0.00%    100.00% |           0      0.00%    100.00% |           0      0.00%    100.00% |           0      0.00%    100.00% |           0      0.00%    100.00% |           0      0.00%    100.00% |           0      0.00%    100.00% |           0      0.00%    100.00% |           0      0.00%    100.00% (Unspecified)
board.cache_hierarchy.ruby_system.L1Cache_Controller.E.L1_Replacement::total           13                       (Unspecified)
board.cache_hierarchy.ruby_system.L1Cache_Controller.E.Fwd_GETS |           7     17.95%     17.95% |           3      7.69%     25.64% |           3      7.69%     33.33% |           2      5.13%     38.46% |           2      5.13%     43.59% |           2      5.13%     48.72% |           3      7.69%     56.41% |           2      5.13%     61.54% |           2      5.13%     66.67% |           2      5.13%     71.79% |           2      5.13%     76.92% |           2      5.13%     82.05% |           2      5.13%     87.18% |           5     12.82%    100.00% |           0      0.00%    100.00% |           0      0.00%    100.00% |           0      0.00%    100.00% (Unspecified)
board.cache_hierarchy.ruby_system.L1Cache_Controller.E.Fwd_GETS::total           39                       (Unspecified)
board.cache_hierarchy.ruby_system.L1Cache_Controller.M.Load |       10556      3.37%      3.37% |       18913      6.05%      9.42% |       18883      6.04%     15.46% |       18890      6.04%     21.49% |       18892      6.04%     27.53% |       18900      6.04%     33.57% |       18887      6.04%     39.61% |       18889      6.04%     45.65% |       18876      6.03%     51.68% |       18884      6.04%     57.72% |       18879      6.03%     63.75% |       18875      6.03%     69.79% |       18916      6.05%     75.83% |       18913      6.05%     81.88% |       18905      6.04%     87.92% |       18881      6.04%     93.96% |       18909      6.04%    100.00% (Unspecified)
board.cache_hierarchy.ruby_system.L1Cache_Controller.M.Load::total       312848                       (Unspecified)
board.cache_hierarchy.ruby_system.L1Cache_Controller.M.Store |       21873      8.44%      8.44% |       14830      5.72%     14.16% |       14759      5.69%     19.86% |       14754      5.69%     25.55% |       14754      5.69%     31.24% |       14754      5.69%     36.93% |       14754      5.69%     42.63% |       14753      5.69%     48.32% |       14753      5.69%     54.01% |       14754      5.69%     59.71% |       14753      5.69%     65.40% |       14753      5.69%     71.09% |       15020      5.80%     76.89% |       15092      5.82%     82.71% |       15016      5.79%     88.50% |       14756      5.69%     94.20% |       15041      5.80%    100.00% (Unspecified)
board.cache_hierarchy.ruby_system.L1Cache_Controller.M.Store::total       259169                       (Unspecified)
board.cache_hierarchy.ruby_system.L1Cache_Controller.M.L1_Replacement |         339    100.00%    100.00% |           0      0.00%    100.00% |           0      0.00%    100.00% |           0      0.00%    100.00% |           0      0.00%    100.00% |           0      0.00%    100.00% |           0      0.00%    100.00% |           0      0.00%    100.00% |           0      0.00%    100.00% |           0      0.00%    100.00% |           0      0.00%    100.00% |           0      0.00%    100.00% |           0      0.00%    100.00% |           0      0.00%    100.00% |           0      0.00%    100.00% |           0      0.00%    100.00% |           0      0.00%    100.00% (Unspecified)
board.cache_hierarchy.ruby_system.L1Cache_Controller.M.L1_Replacement::total          339                       (Unspecified)
board.cache_hierarchy.ruby_system.L1Cache_Controller.M.Fwd_GETX |          41      0.13%      0.13% |        1985      6.06%      6.18% |        2056      6.27%     12.45% |        2061      6.29%     18.74% |        2061      6.29%     25.03% |        2061      6.29%     31.32% |        2061      6.29%     37.61% |        2061      6.29%     43.89% |        2062      6.29%     50.19% |        2050      6.25%     56.44% |        2050      6.25%     62.70% |        2049      6.25%     68.95% |        2043      6.23%     75.18% |        1983      6.05%     81.23% |        2059      6.28%     87.51% |        2059      6.28%     93.79% |        2034      6.21%    100.00% (Unspecified)
board.cache_hierarchy.ruby_system.L1Cache_Controller.M.Fwd_GETX::total        32776                       (Unspecified)
board.cache_hierarchy.ruby_system.L1Cache_Controller.M.Fwd_GETS |         404     70.75%     70.75% |          11      1.93%     72.68% |          11      1.93%     74.61% |          11      1.93%     76.53% |          11      1.93%     78.46% |          11      1.93%     80.39% |          11      1.93%     82.31% |          12      2.10%     84.41% |          11      1.93%     86.34% |           6      1.05%     87.39% |           7      1.23%     88.62% |           8      1.40%     90.02% |           7      1.23%     91.24% |          13      2.28%     93.52% |          13      2.28%     95.80% |          11      1.93%     97.72% |          13      2.28%    100.00% (Unspecified)
board.cache_hierarchy.ruby_system.L1Cache_Controller.M.Fwd_GETS::total          571                       (Unspecified)
board.cache_hierarchy.ruby_system.L1Cache_Controller.IS.Data_Exclusive |          75      3.87%      3.87% |         134      6.91%     10.77% |         134      6.91%     17.68% |         132      6.80%     24.48% |         133      6.86%     31.34% |         133      6.86%     38.20% |         133      6.86%     45.05% |         133      6.86%     51.91% |         133      6.86%     58.76% |         132      6.80%     65.57% |         132      6.80%     72.37% |         132      6.80%     79.18% |         132      6.80%     85.98% |         129      6.65%     92.63% |          73      3.76%     96.39% |          33      1.70%     98.09% |          37      1.91%    100.00% (Unspecified)
board.cache_hierarchy.ruby_system.L1Cache_Controller.IS.Data_Exclusive::total         1940                       (Unspecified)
board.cache_hierarchy.ruby_system.L1Cache_Controller.IS.DataS_fromL1 |          50      8.20%      8.20% |          21      3.44%     11.64% |          19      3.11%     14.75% |          18      2.95%     17.70% |          19      3.11%     20.82% |          19      3.11%     23.93% |          16      2.62%     26.56% |          18      2.95%     29.51% |          20      3.28%     32.79% |          22      3.61%     36.39% |          18      2.95%     39.34% |          19      3.11%     42.46% |          15      2.46%     44.92% |          24      3.93%     48.85% |          77     12.62%     61.48% |         124     20.33%     81.80% |         111     18.20%    100.00% (Unspecified)
board.cache_hierarchy.ruby_system.L1Cache_Controller.IS.DataS_fromL1::total          610                       (Unspecified)
board.cache_hierarchy.ruby_system.L1Cache_Controller.IS.Data_all_Acks |         406     12.19%     12.19% |         171      5.14%     17.33% |         173      5.20%     22.52% |         175      5.26%     27.78% |         175      5.26%     33.03% |         178      5.35%     38.38% |         178      5.35%     43.72% |         180      5.41%     49.13% |         177      5.32%     54.44% |         181      5.44%     59.88% |         178      5.35%     65.23% |         176      5.29%     70.51% |         207      6.22%     76.73% |         195      5.86%     82.58% |         204      6.13%     88.71% |         171      5.14%     93.84% |         205      6.16%    100.00% (Unspecified)
board.cache_hierarchy.ruby_system.L1Cache_Controller.IS.Data_all_Acks::total         3330                       (Unspecified)
board.cache_hierarchy.ruby_system.L1Cache_Controller.IM.Data |           0      0.00%      0.00% |           0      0.00%      0.00% |           0      0.00%      0.00% |           0      0.00%      0.00% |           0      0.00%      0.00% |           0      0.00%      0.00% |           0      0.00%      0.00% |           0      0.00%      0.00% |           0      0.00%      0.00% |           1     33.33%     33.33% |           0      0.00%     33.33% |           0      0.00%     33.33% |           1     33.33%     66.67% |           0      0.00%     66.67% |           1     33.33%    100.00% |           0      0.00%    100.00% |           0      0.00%    100.00% (Unspecified)
board.cache_hierarchy.ruby_system.L1Cache_Controller.IM.Data::total            3                       (Unspecified)
board.cache_hierarchy.ruby_system.L1Cache_Controller.IM.Data_all_Acks |         394      1.18%      1.18% |        1999      5.96%      7.14% |        2069      6.17%     13.31% |        2075      6.19%     19.50% |        2074      6.19%     25.69% |        2075      6.19%     31.88% |        2075      6.19%     38.07% |        2075      6.19%     44.26% |        2075      6.19%     50.45% |        2074      6.19%     56.64% |        2074      6.19%     62.83% |        2075      6.19%     69.02% |        2102      6.27%     75.29% |        2029      6.05%     81.34% |        2103      6.27%     87.61% |        2071      6.18%     93.79% |        2081      6.21%    100.00% (Unspecified)
board.cache_hierarchy.ruby_system.L1Cache_Controller.IM.Data_all_Acks::total        33520                       (Unspecified)
board.cache_hierarchy.ruby_system.L1Cache_Controller.SM.Inv |           0      0.00%      0.00% |           0      0.00%      0.00% |           0      0.00%      0.00% |           0      0.00%      0.00% |           0      0.00%      0.00% |           0      0.00%      0.00% |           0      0.00%      0.00% |           0      0.00%      0.00% |           0      0.00%      0.00% |           0      0.00%      0.00% |           0      0.00%      0.00% |           0      0.00%      0.00% |           1    100.00%    100.00% |           0      0.00%    100.00% |           0      0.00%    100.00% |           0      0.00%    100.00% |           0      0.00%    100.00% (Unspecified)
board.cache_hierarchy.ruby_system.L1Cache_Controller.SM.Inv::total            1                       (Unspecified)
board.cache_hierarchy.ruby_system.L1Cache_Controller.SM.Ack |          37     14.34%     14.34% |          12      4.65%     18.99% |          14      5.43%     24.42% |          12      4.65%     29.07% |          13      5.04%     34.11% |          12      4.65%     38.76% |          13      5.04%     43.80% |          14      5.43%     49.22% |          13      5.04%     54.26% |          16      6.20%     60.47% |          20      7.75%     68.22% |          15      5.81%     74.03% |          21      8.14%     82.17% |          11      4.26%     86.43% |          12      4.65%     91.09% |          13      5.04%     96.12% |          10      3.88%    100.00% (Unspecified)
board.cache_hierarchy.ruby_system.L1Cache_Controller.SM.Ack::total          258                       (Unspecified)
board.cache_hierarchy.ruby_system.L1Cache_Controller.SM.Ack_all |          34     14.85%     14.85% |          12      5.24%     20.09% |          13      5.68%     25.76% |          12      5.24%     31.00% |          13      5.68%     36.68% |          12      5.24%     41.92% |          12      5.24%     47.16% |          13      5.68%     52.84% |          13      5.68%     58.52% |          13      5.68%     64.19% |          14      6.11%     70.31% |          13      5.68%     75.98% |          10      4.37%     80.35% |          11      4.80%     85.15% |          12      5.24%     90.39% |          13      5.68%     96.07% |           9      3.93%    100.00% (Unspecified)
board.cache_hierarchy.ruby_system.L1Cache_Controller.SM.Ack_all::total          229                       (Unspecified)
board.cache_hierarchy.ruby_system.L1Cache_Controller.M_I.Ifetch |           1    100.00%    100.00% |           0      0.00%    100.00% |           0      0.00%    100.00% |           0      0.00%    100.00% |           0      0.00%    100.00% |           0      0.00%    100.00% |           0      0.00%    100.00% |           0      0.00%    100.00% |           0      0.00%    100.00% |           0      0.00%    100.00% |           0      0.00%    100.00% |           0      0.00%    100.00% |           0      0.00%    100.00% |           0      0.00%    100.00% |           0      0.00%    100.00% |           0      0.00%    100.00% |           0      0.00%    100.00% (Unspecified)
board.cache_hierarchy.ruby_system.L1Cache_Controller.M_I.Ifetch::total            1                       (Unspecified)
board.cache_hierarchy.ruby_system.L1Cache_Controller.M_I.WB_Ack |         352    100.00%    100.00% |           0      0.00%    100.00% |           0      0.00%    100.00% |           0      0.00%    100.00% |           0      0.00%    100.00% |           0      0.00%    100.00% |           0      0.00%    100.00% |           0      0.00%    100.00% |           0      0.00%    100.00% |           0      0.00%    100.00% |           0      0.00%    100.00% |           0      0.00%    100.00% |           0      0.00%    100.00% |           0      0.00%    100.00% |           0      0.00%    100.00% |           0      0.00%    100.00% |           0      0.00%    100.00% (Unspecified)
board.cache_hierarchy.ruby_system.L1Cache_Controller.M_I.WB_Ack::total          352                       (Unspecified)
board.cache_hierarchy.ruby_system.L2Cache_Controller.L1_GET_INSTR |         198      6.42%      6.42% |         126      4.09%     10.51% |         139      4.51%     15.01% |         165      5.35%     20.36% |         192      6.23%     26.59% |         223      7.23%     33.82% |         243      7.88%     41.70% |         162      5.25%     46.95% |         178      5.77%     52.72% |         204      6.61%     59.34% |         184      5.97%     65.30% |         187      6.06%     71.37% |         211      6.84%     78.21% |         206      6.68%     84.89% |         233      7.56%     92.44% |         233      7.56%    100.00% (Unspecified)
board.cache_hierarchy.ruby_system.L2Cache_Controller.L1_GET_INSTR::total         3084                       (Unspecified)
board.cache_hierarchy.ruby_system.L2Cache_Controller.L1_GETS |         164      5.86%      5.86% |         208      7.43%     13.30% |         195      6.97%     20.26% |         202      7.22%     27.48% |         185      6.61%     34.10% |         184      6.58%     40.67% |         171      6.11%     46.78% |         140      5.00%     51.79% |         139      4.97%     56.75% |         188      6.72%     63.47% |         194      6.93%     70.41% |         133      4.75%     75.16% |         166      5.93%     81.09% |         158      5.65%     86.74% |         189      6.75%     93.50% |         182      6.50%    100.00% (Unspecified)
board.cache_hierarchy.ruby_system.L2Cache_Controller.L1_GETS::total         2798                       (Unspecified)
board.cache_hierarchy.ruby_system.L2Cache_Controller.L1_GETX |      276211     89.58%     89.58% |       31275     10.14%     99.72% |          52      0.02%     99.74% |          53      0.02%     99.76% |          85      0.03%     99.79% |          96      0.03%     99.82% |          75      0.02%     99.84% |          80      0.03%     99.87% |          80      0.03%     99.89% |          47      0.02%     99.91% |          52      0.02%     99.92% |          31      0.01%     99.93% |          64      0.02%     99.96% |          63      0.02%     99.98% |          44      0.01%     99.99% |          30      0.01%    100.00% (Unspecified)
board.cache_hierarchy.ruby_system.L2Cache_Controller.L1_GETX::total       308338                       (Unspecified)
board.cache_hierarchy.ruby_system.L2Cache_Controller.L1_UPGRADE |           1      0.44%      0.44% |          60     26.43%     26.87% |          29     12.78%     39.65% |          14      6.17%     45.81% |          16      7.05%     52.86% |          33     14.54%     67.40% |           4      1.76%     69.16% |           5      2.20%     71.37% |           2      0.88%     72.25% |           2      0.88%     73.13% |          25     11.01%     84.14% |           0      0.00%     84.14% |          14      6.17%     90.31% |           3      1.32%     91.63% |          18      7.93%     99.56% |           1      0.44%    100.00% (Unspecified)
board.cache_hierarchy.ruby_system.L2Cache_Controller.L1_UPGRADE::total          227                       (Unspecified)
board.cache_hierarchy.ruby_system.L2Cache_Controller.L1_PUTX |           7      1.99%      1.99% |          17      4.83%      6.82% |          16      4.55%     11.36% |          27      7.67%     19.03% |          46     13.07%     32.10% |          31      8.81%     40.91% |          30      8.52%     49.43% |          15      4.26%     53.69% |          16      4.55%     58.24% |          14      3.98%     62.22% |          29      8.24%     70.45% |          11      3.12%     73.58% |          28      7.95%     81.53% |          40     11.36%     92.90% |          16      4.55%     97.44% |           9      2.56%    100.00% (Unspecified)
board.cache_hierarchy.ruby_system.L2Cache_Controller.L1_PUTX::total          352                       (Unspecified)
board.cache_hierarchy.ruby_system.L2Cache_Controller.Mem_Data |          57      4.98%      4.98% |          72      6.29%     11.27% |          77      6.72%     17.99% |          78      6.81%     24.80% |          93      8.12%     32.93% |          96      8.38%     41.31% |          80      6.99%     48.30% |          73      6.38%     54.67% |          69      6.03%     60.70% |          71      6.20%     66.90% |          54      4.72%     71.62% |          43      3.76%     75.37% |          65      5.68%     81.05% |          76      6.64%     87.69% |          70      6.11%     93.80% |          71      6.20%    100.00% (Unspecified)
board.cache_hierarchy.ruby_system.L2Cache_Controller.Mem_Data::total         1145                       (Unspecified)
board.cache_hierarchy.ruby_system.L2Cache_Controller.WB_Data |          24      4.20%      4.20% |          91     15.94%     20.14% |          62     10.86%     31.00% |          35      6.13%     37.13% |          33      5.78%     42.91% |          59     10.33%     53.24% |          19      3.33%     56.57% |          21      3.68%     60.25% |          20      3.50%     63.75% |          39      6.83%     70.58% |          45      7.88%     78.46% |          18      3.15%     81.61% |          27      4.73%     86.34% |          19      3.33%     89.67% |          35      6.13%     95.80% |          24      4.20%    100.00% (Unspecified)
board.cache_hierarchy.ruby_system.L2Cache_Controller.WB_Data::total          571                       (Unspecified)
board.cache_hierarchy.ruby_system.L2Cache_Controller.WB_Data_clean |          12     30.77%     30.77% |           0      0.00%     30.77% |           1      2.56%     33.33% |          13     33.33%     66.67% |           1      2.56%     69.23% |           1      2.56%     71.79% |           1      2.56%     74.36% |           0      0.00%     74.36% |           0      0.00%     74.36% |           1      2.56%     76.92% |           2      5.13%     82.05% |           0      0.00%     82.05% |           1      2.56%     84.62% |           1      2.56%     87.18% |           3      7.69%     94.87% |           2      5.13%    100.00% (Unspecified)
board.cache_hierarchy.ruby_system.L2Cache_Controller.WB_Data_clean::total           39                       (Unspecified)
board.cache_hierarchy.ruby_system.L2Cache_Controller.Unblock |          36      5.90%      5.90% |          91     14.92%     20.82% |          63     10.33%     31.15% |          48      7.87%     39.02% |          34      5.57%     44.59% |          60      9.84%     54.43% |          20      3.28%     57.70% |          21      3.44%     61.15% |          20      3.28%     64.43% |          40      6.56%     70.98% |          47      7.70%     78.69% |          18      2.95%     81.64% |          28      4.59%     86.23% |          20      3.28%     89.51% |          38      6.23%     95.74% |          26      4.26%    100.00% (Unspecified)
board.cache_hierarchy.ruby_system.L2Cache_Controller.Unblock::total          610                       (Unspecified)
board.cache_hierarchy.ruby_system.L2Cache_Controller.Exclusive_Unblock |       24644     69.05%     69.05% |        8309     23.28%     92.33% |         198      0.55%     92.89% |         193      0.54%     93.43% |         236      0.66%     94.09% |         253      0.71%     94.80% |         203      0.57%     95.37% |         202      0.57%     95.93% |         200      0.56%     96.49% |         179      0.50%     97.00% |         195      0.55%     97.54% |         146      0.41%     97.95% |         201      0.56%     98.51% |         190      0.53%     99.05% |         182      0.51%     99.56% |         158      0.44%    100.00% (Unspecified)
board.cache_hierarchy.ruby_system.L2Cache_Controller.Exclusive_Unblock::total        35689                       (Unspecified)
board.cache_hierarchy.ruby_system.L2Cache_Controller.NP.L1_GET_INSTR |          24      6.27%      6.27% |          24      6.27%     12.53% |          26      6.79%     19.32% |          27      7.05%     26.37% |          26      6.79%     33.16% |          28      7.31%     40.47% |          27      7.05%     47.52% |          22      5.74%     53.26% |          18      4.70%     57.96% |          20      5.22%     63.19% |          19      4.96%     68.15% |          22      5.74%     73.89% |          27      7.05%     80.94% |          24      6.27%     87.21% |          24      6.27%     93.47% |          25      6.53%    100.00% (Unspecified)
board.cache_hierarchy.ruby_system.L2Cache_Controller.NP.L1_GET_INSTR::total          383                       (Unspecified)
board.cache_hierarchy.ruby_system.L2Cache_Controller.NP.L1_GETS |           0      0.00%      0.00% |           2      3.08%      3.08% |           0      0.00%      3.08% |           0      0.00%      3.08% |          16     24.62%     27.69% |           1      1.54%     29.23% |           3      4.62%     33.85% |           0      0.00%     33.85% |           0      0.00%     33.85% |          17     26.15%     60.00% |           1      1.54%     61.54% |           2      3.08%     64.62% |           2      3.08%     67.69% |           1      1.54%     69.23% |           3      4.62%     73.85% |          17     26.15%    100.00% (Unspecified)
board.cache_hierarchy.ruby_system.L2Cache_Controller.NP.L1_GETS::total           65                       (Unspecified)
board.cache_hierarchy.ruby_system.L2Cache_Controller.NP.L1_GETX |          33      4.73%      4.73% |          46      6.60%     11.33% |          51      7.32%     18.65% |          51      7.32%     25.97% |          51      7.32%     33.29% |          67      9.61%     42.90% |          50      7.17%     50.07% |          51      7.32%     57.39% |          51      7.32%     64.71% |          34      4.88%     69.58% |          34      4.88%     74.46% |          19      2.73%     77.19% |          36      5.16%     82.35% |          51      7.32%     89.67% |          43      6.17%     95.84% |          29      4.16%    100.00% (Unspecified)
board.cache_hierarchy.ruby_system.L2Cache_Controller.NP.L1_GETX::total          697                       (Unspecified)
board.cache_hierarchy.ruby_system.L2Cache_Controller.SS.L1_GET_INSTR |         174      6.45%      6.45% |         102      3.78%     10.23% |         113      4.19%     14.41% |         138      5.11%     19.53% |         166      6.15%     25.68% |         195      7.22%     32.90% |         216      8.00%     40.90% |         140      5.19%     46.09% |         160      5.93%     52.02% |         183      6.78%     58.80% |         165      6.11%     64.91% |         165      6.11%     71.03% |         184      6.82%     77.84% |         182      6.74%     84.59% |         208      7.71%     92.29% |         208      7.71%    100.00% (Unspecified)
board.cache_hierarchy.ruby_system.L2Cache_Controller.SS.L1_GET_INSTR::total         2699                       (Unspecified)
board.cache_hierarchy.ruby_system.L2Cache_Controller.SS.L1_GETS |          20      8.13%      8.13% |           2      0.81%      8.94% |          15      6.10%     15.04% |          28     11.38%     26.42% |          16      6.50%     32.93% |           0      0.00%     32.93% |          27     10.98%     43.90% |           2      0.81%     44.72% |           1      0.41%     45.12% |          18      7.32%     52.44% |          28     11.38%     63.82% |           0      0.00%     63.82% |          15      6.10%     69.92% |          14      5.69%     75.61% |          31     12.60%     88.21% |          29     11.79%    100.00% (Unspecified)
board.cache_hierarchy.ruby_system.L2Cache_Controller.SS.L1_GETS::total          246                       (Unspecified)
board.cache_hierarchy.ruby_system.L2Cache_Controller.SS.L1_GETX |           0      0.00%      0.00% |           0      0.00%      0.00% |           0      0.00%      0.00% |           0      0.00%      0.00% |           0      0.00%      0.00% |           0      0.00%      0.00% |           0      0.00%      0.00% |           0      0.00%      0.00% |           0      0.00%      0.00% |           0      0.00%      0.00% |           3    100.00%    100.00% |           0      0.00%    100.00% |           0      0.00%    100.00% |           0      0.00%    100.00% |           0      0.00%    100.00% |           0      0.00%    100.00% (Unspecified)
board.cache_hierarchy.ruby_system.L2Cache_Controller.SS.L1_GETX::total            3                       (Unspecified)
board.cache_hierarchy.ruby_system.L2Cache_Controller.SS.L1_UPGRADE |           1      0.44%      0.44% |          59     26.11%     26.55% |          29     12.83%     39.38% |          14      6.19%     45.58% |          16      7.08%     52.65% |          33     14.60%     67.26% |           4      1.77%     69.03% |           5      2.21%     71.24% |           2      0.88%     72.12% |           2      0.88%     73.01% |          25     11.06%     84.07% |           0      0.00%     84.07% |          14      6.19%     90.27% |           3      1.33%     91.59% |          18      7.96%     99.56% |           1      0.44%    100.00% (Unspecified)
board.cache_hierarchy.ruby_system.L2Cache_Controller.SS.L1_UPGRADE::total          226                       (Unspecified)
board.cache_hierarchy.ruby_system.L2Cache_Controller.M.L1_GET_INSTR |           0      0.00%      0.00% |           0      0.00%      0.00% |           0      0.00%      0.00% |           0      0.00%      0.00% |           0      0.00%      0.00% |           0      0.00%      0.00% |           0      0.00%      0.00% |           0      0.00%      0.00% |           0      0.00%      0.00% |           0      0.00%      0.00% |           0      0.00%      0.00% |           0      0.00%      0.00% |           0      0.00%      0.00% |           0      0.00%      0.00% |           1    100.00%    100.00% |           0      0.00%    100.00% (Unspecified)
board.cache_hierarchy.ruby_system.L2Cache_Controller.M.L1_GET_INSTR::total            1                       (Unspecified)
board.cache_hierarchy.ruby_system.L2Cache_Controller.M.L1_GETS |         108      5.76%      5.76% |         112      5.97%     11.73% |         117      6.24%     17.97% |         126      6.72%     24.69% |         119      6.35%     31.04% |         123      6.56%     37.60% |         121      6.45%     44.05% |         117      6.24%     50.29% |         118      6.29%     56.59% |         113      6.03%     62.61% |         117      6.24%     68.85% |         113      6.03%     74.88% |         121      6.45%     81.33% |         123      6.56%     87.89% |         117      6.24%     94.13% |         110      5.87%    100.00% (Unspecified)
board.cache_hierarchy.ruby_system.L2Cache_Controller.M.L1_GETS::total         1875                       (Unspecified)
board.cache_hierarchy.ruby_system.L2Cache_Controller.M.L1_GETX |           2      4.26%      4.26% |           2      4.26%      8.51% |           1      2.13%     10.64% |           2      4.26%     14.89% |          20     42.55%     57.45% |           1      2.13%     59.57% |           1      2.13%     61.70% |           1      2.13%     63.83% |           1      2.13%     65.96% |           1      2.13%     68.09% |           1      2.13%     70.21% |           0      0.00%     70.21% |          12     25.53%     95.74% |           0      0.00%     95.74% |           1      2.13%     97.87% |           1      2.13%    100.00% (Unspecified)
board.cache_hierarchy.ruby_system.L2Cache_Controller.M.L1_GETX::total           47                       (Unspecified)
board.cache_hierarchy.ruby_system.L2Cache_Controller.MT.L1_GETS |          36      5.90%      5.90% |          91     14.92%     20.82% |          63     10.33%     31.15% |          48      7.87%     39.02% |          34      5.57%     44.59% |          60      9.84%     54.43% |          20      3.28%     57.70% |          21      3.44%     61.15% |          20      3.28%     64.43% |          40      6.56%     70.98% |          47      7.70%     78.69% |          18      2.95%     81.64% |          28      4.59%     86.23% |          20      3.28%     89.51% |          38      6.23%     95.74% |          26      4.26%    100.00% (Unspecified)
board.cache_hierarchy.ruby_system.L2Cache_Controller.MT.L1_GETS::total          610                       (Unspecified)
board.cache_hierarchy.ruby_system.L2Cache_Controller.MT.L1_GETX |       24500     74.75%     74.75% |        8088     24.68%     99.43% |           0      0.00%     99.43% |           0      0.00%     99.43% |          14      0.04%     99.47% |          28      0.09%     99.55% |          24      0.07%     99.63% |          28      0.09%     99.71% |          28      0.09%     99.80% |          12      0.04%     99.84% |          14      0.04%     99.88% |          12      0.04%     99.91% |          16      0.05%     99.96% |          12      0.04%    100.00% |           0      0.00%    100.00% |           0      0.00%    100.00% (Unspecified)
board.cache_hierarchy.ruby_system.L2Cache_Controller.MT.L1_GETX::total        32776                       (Unspecified)
board.cache_hierarchy.ruby_system.L2Cache_Controller.MT.L1_PUTX |           7      1.99%      1.99% |          17      4.83%      6.82% |          16      4.55%     11.36% |          27      7.67%     19.03% |          46     13.07%     32.10% |          31      8.81%     40.91% |          30      8.52%     49.43% |          15      4.26%     53.69% |          16      4.55%     58.24% |          14      3.98%     62.22% |          29      8.24%     70.45% |          11      3.12%     73.58% |          28      7.95%     81.53% |          40     11.36%     92.90% |          16      4.55%     97.44% |           9      2.56%    100.00% (Unspecified)
board.cache_hierarchy.ruby_system.L2Cache_Controller.MT.L1_PUTX::total          352                       (Unspecified)
board.cache_hierarchy.ruby_system.L2Cache_Controller.ISS.Mem_Data |           0      0.00%      0.00% |           2      3.08%      3.08% |           0      0.00%      3.08% |           0      0.00%      3.08% |          16     24.62%     27.69% |           1      1.54%     29.23% |           3      4.62%     33.85% |           0      0.00%     33.85% |           0      0.00%     33.85% |          17     26.15%     60.00% |           1      1.54%     61.54% |           2      3.08%     64.62% |           2      3.08%     67.69% |           1      1.54%     69.23% |           3      4.62%     73.85% |          17     26.15%    100.00% (Unspecified)
board.cache_hierarchy.ruby_system.L2Cache_Controller.ISS.Mem_Data::total           65                       (Unspecified)
board.cache_hierarchy.ruby_system.L2Cache_Controller.IS.L1_GET_INSTR |           0      0.00%      0.00% |           0      0.00%      0.00% |           0      0.00%      0.00% |           0      0.00%      0.00% |           0      0.00%      0.00% |           0      0.00%      0.00% |           0      0.00%      0.00% |           0      0.00%      0.00% |           0      0.00%      0.00% |           1    100.00%    100.00% |           0      0.00%    100.00% |           0      0.00%    100.00% |           0      0.00%    100.00% |           0      0.00%    100.00% |           0      0.00%    100.00% |           0      0.00%    100.00% (Unspecified)
board.cache_hierarchy.ruby_system.L2Cache_Controller.IS.L1_GET_INSTR::total            1                       (Unspecified)
board.cache_hierarchy.ruby_system.L2Cache_Controller.IS.Mem_Data |          24      6.27%      6.27% |          24      6.27%     12.53% |          26      6.79%     19.32% |          27      7.05%     26.37% |          26      6.79%     33.16% |          28      7.31%     40.47% |          27      7.05%     47.52% |          22      5.74%     53.26% |          18      4.70%     57.96% |          20      5.22%     63.19% |          19      4.96%     68.15% |          22      5.74%     73.89% |          27      7.05%     80.94% |          24      6.27%     87.21% |          24      6.27%     93.47% |          25      6.53%    100.00% (Unspecified)
board.cache_hierarchy.ruby_system.L2Cache_Controller.IS.Mem_Data::total          383                       (Unspecified)
board.cache_hierarchy.ruby_system.L2Cache_Controller.IM.Mem_Data |          33      4.73%      4.73% |          46      6.60%     11.33% |          51      7.32%     18.65% |          51      7.32%     25.97% |          51      7.32%     33.29% |          67      9.61%     42.90% |          50      7.17%     50.07% |          51      7.32%     57.39% |          51      7.32%     64.71% |          34      4.88%     69.58% |          34      4.88%     74.46% |          19      2.73%     77.19% |          36      5.16%     82.35% |          51      7.32%     89.67% |          43      6.17%     95.84% |          29      4.16%    100.00% (Unspecified)
board.cache_hierarchy.ruby_system.L2Cache_Controller.IM.Mem_Data::total          697                       (Unspecified)
board.cache_hierarchy.ruby_system.L2Cache_Controller.SS_MB.L1_GETS |           0      0.00%      0.00% |           0      0.00%      0.00% |           0      0.00%      0.00% |           0      0.00%      0.00% |           0      0.00%      0.00% |           0      0.00%      0.00% |           0      0.00%      0.00% |           0      0.00%      0.00% |           0      0.00%      0.00% |           0      0.00%      0.00% |           1    100.00%    100.00% |           0      0.00%    100.00% |           0      0.00%    100.00% |           0      0.00%    100.00% |           0      0.00%    100.00% |           0      0.00%    100.00% (Unspecified)
board.cache_hierarchy.ruby_system.L2Cache_Controller.SS_MB.L1_GETS::total            1                       (Unspecified)
board.cache_hierarchy.ruby_system.L2Cache_Controller.SS_MB.L1_UPGRADE |           0      0.00%      0.00% |           1    100.00%    100.00% |           0      0.00%    100.00% |           0      0.00%    100.00% |           0      0.00%    100.00% |           0      0.00%    100.00% |           0      0.00%    100.00% |           0      0.00%    100.00% |           0      0.00%    100.00% |           0      0.00%    100.00% |           0      0.00%    100.00% |           0      0.00%    100.00% |           0      0.00%    100.00% |           0      0.00%    100.00% |           0      0.00%    100.00% |           0      0.00%    100.00% (Unspecified)
board.cache_hierarchy.ruby_system.L2Cache_Controller.SS_MB.L1_UPGRADE::total            1                       (Unspecified)
board.cache_hierarchy.ruby_system.L2Cache_Controller.SS_MB.Exclusive_Unblock |           1      0.44%      0.44% |          59     25.76%     26.20% |          29     12.66%     38.86% |          14      6.11%     44.98% |          16      6.99%     51.97% |          33     14.41%     66.38% |           4      1.75%     68.12% |           5      2.18%     70.31% |           2      0.87%     71.18% |           2      0.87%     72.05% |          28     12.23%     84.28% |           0      0.00%     84.28% |          14      6.11%     90.39% |           3      1.31%     91.70% |          18      7.86%     99.56% |           1      0.44%    100.00% (Unspecified)
board.cache_hierarchy.ruby_system.L2Cache_Controller.SS_MB.Exclusive_Unblock::total          229                       (Unspecified)
board.cache_hierarchy.ruby_system.L2Cache_Controller.MT_MB.L1_GETX |      251676     91.58%     91.58% |       23139      8.42%    100.00% |           0      0.00%    100.00% |           0      0.00%    100.00% |           0      0.00%    100.00% |           0      0.00%    100.00% |           0      0.00%    100.00% |           0      0.00%    100.00% |           0      0.00%    100.00% |           0      0.00%    100.00% |           0      0.00%    100.00% |           0      0.00%    100.00% |           0      0.00%    100.00% |           0      0.00%    100.00% |           0      0.00%    100.00% |           0      0.00%    100.00% (Unspecified)
board.cache_hierarchy.ruby_system.L2Cache_Controller.MT_MB.L1_GETX::total       274815                       (Unspecified)
board.cache_hierarchy.ruby_system.L2Cache_Controller.MT_MB.Exclusive_Unblock |       24643     69.50%     69.50% |        8250     23.27%     92.76% |         169      0.48%     93.24% |         179      0.50%     93.74% |         220      0.62%     94.36% |         220      0.62%     94.98% |         199      0.56%     95.54% |         197      0.56%     96.10% |         198      0.56%     96.66% |         177      0.50%     97.16% |         167      0.47%     97.63% |         146      0.41%     98.04% |         187      0.53%     98.57% |         187      0.53%     99.09% |         164      0.46%     99.56% |         157      0.44%    100.00% (Unspecified)
board.cache_hierarchy.ruby_system.L2Cache_Controller.MT_MB.Exclusive_Unblock::total        35460                       (Unspecified)
board.cache_hierarchy.ruby_system.L2Cache_Controller.MT_IIB.L1_GETS |           0      0.00%      0.00% |           1    100.00%    100.00% |           0      0.00%    100.00% |           0      0.00%    100.00% |           0      0.00%    100.00% |           0      0.00%    100.00% |           0      0.00%    100.00% |           0      0.00%    100.00% |           0      0.00%    100.00% |           0      0.00%    100.00% |           0      0.00%    100.00% |           0      0.00%    100.00% |           0      0.00%    100.00% |           0      0.00%    100.00% |           0      0.00%    100.00% |           0      0.00%    100.00% (Unspecified)
board.cache_hierarchy.ruby_system.L2Cache_Controller.MT_IIB.L1_GETS::total            1                       (Unspecified)
board.cache_hierarchy.ruby_system.L2Cache_Controller.MT_IIB.WB_Data |          23      4.30%      4.30% |          66     12.34%     16.64% |          60     11.21%     27.85% |          35      6.54%     34.39% |          33      6.17%     40.56% |          59     11.03%     51.59% |          18      3.36%     54.95% |          20      3.74%     58.69% |          20      3.74%     62.43% |          39      7.29%     69.72% |          40      7.48%     77.20% |          18      3.36%     80.56% |          27      5.05%     85.61% |          19      3.55%     89.16% |          35      6.54%     95.70% |          23      4.30%    100.00% (Unspecified)
board.cache_hierarchy.ruby_system.L2Cache_Controller.MT_IIB.WB_Data::total          535                       (Unspecified)
board.cache_hierarchy.ruby_system.L2Cache_Controller.MT_IIB.WB_Data_clean |          12     42.86%     42.86% |           0      0.00%     42.86% |           1      3.57%     46.43% |           2      7.14%     53.57% |           1      3.57%     57.14% |           1      3.57%     60.71% |           1      3.57%     64.29% |           0      0.00%     64.29% |           0      0.00%     64.29% |           1      3.57%     67.86% |           2      7.14%     75.00% |           0      0.00%     75.00% |           1      3.57%     78.57% |           1      3.57%     82.14% |           3     10.71%     92.86% |           2      7.14%    100.00% (Unspecified)
board.cache_hierarchy.ruby_system.L2Cache_Controller.MT_IIB.WB_Data_clean::total           28                       (Unspecified)
board.cache_hierarchy.ruby_system.L2Cache_Controller.MT_IIB.Unblock |           1      2.13%      2.13% |          25     53.19%     55.32% |           2      4.26%     59.57% |          11     23.40%     82.98% |           0      0.00%     82.98% |           0      0.00%     82.98% |           1      2.13%     85.11% |           1      2.13%     87.23% |           0      0.00%     87.23% |           0      0.00%     87.23% |           5     10.64%     97.87% |           0      0.00%     97.87% |           0      0.00%     97.87% |           0      0.00%     97.87% |           0      0.00%     97.87% |           1      2.13%    100.00% (Unspecified)
board.cache_hierarchy.ruby_system.L2Cache_Controller.MT_IIB.Unblock::total           47                       (Unspecified)
board.cache_hierarchy.ruby_system.L2Cache_Controller.MT_IB.WB_Data |           1      2.78%      2.78% |          25     69.44%     72.22% |           2      5.56%     77.78% |           0      0.00%     77.78% |           0      0.00%     77.78% |           0      0.00%     77.78% |           1      2.78%     80.56% |           1      2.78%     83.33% |           0      0.00%     83.33% |           0      0.00%     83.33% |           5     13.89%     97.22% |           0      0.00%     97.22% |           0      0.00%     97.22% |           0      0.00%     97.22% |           0      0.00%     97.22% |           1      2.78%    100.00% (Unspecified)
board.cache_hierarchy.ruby_system.L2Cache_Controller.MT_IB.WB_Data::total           36                       (Unspecified)
board.cache_hierarchy.ruby_system.L2Cache_Controller.MT_IB.WB_Data_clean |           0      0.00%      0.00% |           0      0.00%      0.00% |           0      0.00%      0.00% |          11    100.00%    100.00% |           0      0.00%    100.00% |           0      0.00%    100.00% |           0      0.00%    100.00% |           0      0.00%    100.00% |           0      0.00%    100.00% |           0      0.00%    100.00% |           0      0.00%    100.00% |           0      0.00%    100.00% |           0      0.00%    100.00% |           0      0.00%    100.00% |           0      0.00%    100.00% |           0      0.00%    100.00% (Unspecified)
board.cache_hierarchy.ruby_system.L2Cache_Controller.MT_IB.WB_Data_clean::total           11                       (Unspecified)
board.cache_hierarchy.ruby_system.L2Cache_Controller.MT_SB.Unblock |          35      6.22%      6.22% |          66     11.72%     17.94% |          61     10.83%     28.77% |          37      6.57%     35.35% |          34      6.04%     41.39% |          60     10.66%     52.04% |          19      3.37%     55.42% |          20      3.55%     58.97% |          20      3.55%     62.52% |          40      7.10%     69.63% |          42      7.46%     77.09% |          18      3.20%     80.28% |          28      4.97%     85.26% |          20      3.55%     88.81% |          38      6.75%     95.56% |          25      4.44%    100.00% (Unspecified)
board.cache_hierarchy.ruby_system.L2Cache_Controller.MT_SB.Unblock::total          563                       (Unspecified)
board.cache_hierarchy.ruby_system.RequestType.LD.latency_hist_seqr::bucket_size          128                       (Unspecified)
board.cache_hierarchy.ruby_system.RequestType.LD.latency_hist_seqr::max_bucket         1279                       (Unspecified)
board.cache_hierarchy.ruby_system.RequestType.LD.latency_hist_seqr::samples       349461                       (Unspecified)
board.cache_hierarchy.ruby_system.RequestType.LD.latency_hist_seqr::mean     1.475787                       (Unspecified)
board.cache_hierarchy.ruby_system.RequestType.LD.latency_hist_seqr::gmean     1.032641                       (Unspecified)
board.cache_hierarchy.ruby_system.RequestType.LD.latency_hist_seqr::stdev     6.482567                       (Unspecified)
board.cache_hierarchy.ruby_system.RequestType.LD.latency_hist_seqr |      349396     99.98%     99.98% |          55      0.02%    100.00% |           8      0.00%    100.00% |           0      0.00%    100.00% |           0      0.00%    100.00% |           0      0.00%    100.00% |           0      0.00%    100.00% |           0      0.00%    100.00% |           0      0.00%    100.00% |           2      0.00%    100.00% (Unspecified)
board.cache_hierarchy.ruby_system.RequestType.LD.latency_hist_seqr::total       349461                       (Unspecified)
board.cache_hierarchy.ruby_system.RequestType.LD.hit_latency_hist_seqr::bucket_size            1                       (Unspecified)
[...]
board.processor.cores9.core.executeStats0.numInsts       227152                       # Number of executed instructions (Count)
board.processor.cores9.core.executeStats0.numNop            0                       # Number of nop insts executed (Count)
board.processor.cores9.core.executeStats0.numBranches        12965                       # Number of branches executed (Count)
board.processor.cores9.core.executeStats0.numLoadInsts        56084                       # Number of load instructions executed (Count)
board.processor.cores9.core.executeStats0.numStoreInsts        16910                       # Number of stores executed (Count)
board.processor.cores9.core.executeStats0.instRate     0.117958                       # Inst execution rate ((Count/Cycle))
board.processor.cores9.core.executeStats0.numCCRegReads        32863                       # Number of times the CC registers were read (Count)
board.processor.cores9.core.executeStats0.numCCRegWrites        54619                       # Number of times the CC registers were written (Count)
board.processor.cores9.core.executeStats0.numFpRegReads           15                       # Number of times the floating registers were read (Count)
board.processor.cores9.core.executeStats0.numFpRegWrites           10                       # Number of times the floating registers were written (Count)
board.processor.cores9.core.executeStats0.numIntRegReads       247526                       # Number of times the integer registers were read (Count)
board.processor.cores9.core.executeStats0.numIntRegWrites       184337                       # Number of times the integer registers were written (Count)
board.processor.cores9.core.executeStats0.numMemRefs        72994                       # Number of memory refs (Count)
board.processor.cores9.core.executeStats0.numMiscRegReads       102931                       # Number of times the Misc registers were read (Count)
board.processor.cores9.core.executeStats0.numMiscRegWrites            1                       # Number of times the Misc registers were written (Count)
board.processor.cores9.core.executeStats0.numVecAluAccesses            0                       # Number of vector alu accesses (Count)
board.processor.cores9.core.executeStats0.numDiscardedOps            0                       # Number of ops (including micro ops) which were discarded before commit (Count)
board.processor.cores9.core.fetch.predictedBranches        18993                       # Number of branches that fetch has predicted taken (Count)
board.processor.cores9.core.fetch.cycles      1878780                       # Number of cycles fetch has run and was not squashing or blocked (Cycle)
board.processor.cores9.core.fetch.squashCycles         4610                       # Number of cycles fetch has spent squashing (Cycle)
board.processor.cores9.core.fetch.miscStallCycles           35                       # Number of cycles fetch has spent waiting on interrupts, or bad addresses, or out of MSHRs (Cycle)
board.processor.cores9.core.fetch.pendingTrapStallCycles          205                       # Number of stall cycles due to pending traps (Cycle)
board.processor.cores9.core.fetch.cacheLines        35612                       # Number of cache lines fetched (Count)
board.processor.cores9.core.fetch.icacheSquashes          101                       # Number of outstanding Icache misses that were squashed (Count)
board.processor.cores9.core.fetch.nisnDist::samples      1923306                       # Number of instructions fetched each cycle (Total) (Count)
board.processor.cores9.core.fetch.nisnDist::mean     0.216757                       # Number of instructions fetched each cycle (Total) (Count)
board.processor.cores9.core.fetch.nisnDist::stdev     1.216456                       # Number of instructions fetched each cycle (Total) (Count)
board.processor.cores9.core.fetch.nisnDist::underflows            0      0.00%      0.00% # Number of instructions fetched each cycle (Total) (Count)
board.processor.cores9.core.fetch.nisnDist::0      1854296     96.41%     96.41% # Number of instructions fetched each cycle (Total) (Count)
board.processor.cores9.core.fetch.nisnDist::1         4144      0.22%     96.63% # Number of instructions fetched each cycle (Total) (Count)
board.processor.cores9.core.fetch.nisnDist::2         8241      0.43%     97.06% # Number of instructions fetched each cycle (Total) (Count)
board.processor.cores9.core.fetch.nisnDist::3         4164      0.22%     97.27% # Number of instructions fetched each cycle (Total) (Count)
board.processor.cores9.core.fetch.nisnDist::4           89      0.00%     97.28% # Number of instructions fetched each cycle (Total) (Count)
board.processor.cores9.core.fetch.nisnDist::5         2184      0.11%     97.39% # Number of instructions fetched each cycle (Total) (Count)
board.processor.cores9.core.fetch.nisnDist::6        14434      0.75%     98.14% # Number of instructions fetched each cycle (Total) (Count)
board.processor.cores9.core.fetch.nisnDist::7          139      0.01%     98.15% # Number of instructions fetched each cycle (Total) (Count)
board.processor.cores9.core.fetch.nisnDist::8        35615      1.85%    100.00% # Number of instructions fetched each cycle (Total) (Count)
board.processor.cores9.core.fetch.nisnDist::overflows            0      0.00%    100.00% # Number of instructions fetched each cycle (Total) (Count)
board.processor.cores9.core.fetch.nisnDist::min_value            0                       # Number of instructions fetched each cycle (Total) (Count)
board.processor.cores9.core.fetch.nisnDist::max_value            8                       # Number of instructions fetched each cycle (Total) (Count)
board.processor.cores9.core.fetch.nisnDist::total      1923306                       # Number of instructions fetched each cycle (Total) (Count)
board.processor.cores9.core.fetchStats0.numInsts       243979                       # Number of instructions fetched (thread level) (Count)
board.processor.cores9.core.fetchStats0.numOps            0                       # Number of ops (including micro ops) fetched (thread level) (Count)
board.processor.cores9.core.fetchStats0.fetchRate     0.126696                       # Number of inst fetches per cycle ((Count/Cycle))
board.processor.cores9.core.fetchStats0.numBranches        25653                       # Number of branches fetched (Count)
board.processor.cores9.core.fetchStats0.branchRate     0.013321                       # Number of branch fetches per cycle (Ratio)
board.processor.cores9.core.fetchStats0.icacheStallCycles        41981                       # ICache total stall cycles (Cycle)
board.processor.cores9.core.fetchStats0.numFetchSuspends            0                       # Number of times Execute suspended instruction fetching (Count)
board.processor.cores9.core.iew.idleCycles            0                       # Number of cycles IEW is idle (Cycle)
board.processor.cores9.core.iew.squashCycles         2192                       # Number of cycles IEW is squashing (Cycle)
board.processor.cores9.core.iew.blockCycles      1806212                       # Number of cycles IEW is blocking (Cycle)
board.processor.cores9.core.iew.unblockCycles         2362                       # Number of cycles IEW is unblocking (Cycle)
board.processor.cores9.core.iew.dispatchedInsts       318443                       # Number of instructions dispatched to IQ (Count)
board.processor.cores9.core.iew.dispSquashedInsts           16                       # Number of squashed instructions skipped by dispatch (Count)
board.processor.cores9.core.iew.dispLoadInsts        82955                       # Number of dispatched load instructions (Count)
board.processor.cores9.core.iew.dispStoreInsts        25174                       # Number of dispatched store instructions (Count)
board.processor.cores9.core.iew.dispNonSpecInsts         4117                       # Number of dispatched non-speculative instructions (Count)
board.processor.cores9.core.iew.iqFullEvents          284                       # Number of times the IQ has become full, causing a stall (Count)
board.processor.cores9.core.iew.lsqFullEvents           31                       # Number of times the LSQ has become full, causing a stall (Count)
board.processor.cores9.core.iew.memOrderViolationEvents         2055                       # Number of memory order violations (Count)
board.processor.cores9.core.iew.predictedTakenIncorrect            6                       # Number of branches that were predicted taken incorrectly (Count)
board.processor.cores9.core.iew.predictedNotTakenIncorrect          135                       # Number of branches that were predicted not taken incorrectly (Count)
board.processor.cores9.core.iew.branchMispredicts          141                       # Number of branch mispredicts detected at execute (Count)
board.processor.cores9.core.iew.instsToCommit       227113                       # Cumulative count of insts sent to commit (Count)
board.processor.cores9.core.iew.writebackCount       226982                       # Cumulative count of insts written-back (Count)
board.processor.cores9.core.iew.producerInst       165350                       # Number of instructions producing a value (Count)
board.processor.cores9.core.iew.consumerInst       236490                       # Number of instructions consuming a value (Count)
board.processor.cores9.core.iew.wbRate       0.117870                       # Insts written-back per cycle ((Count/Cycle))
board.processor.cores9.core.iew.wbFanout     0.699184                       # Average fanout of values written-back ((Count/Count))
board.processor.cores9.core.interrupts.clk_domain.clock         5328                       # Clock period in ticks (Tick)
board.processor.cores9.core.lsq0.forwLoads         4267                       # Number of loads that had data forwarded from stores (Count)
board.processor.cores9.core.lsq0.squashedLoads        49616                       # Number of loads squashed (Count)
board.processor.cores9.core.lsq0.ignoredResponses            0                       # Number of memory responses ignored because the instruction is squashed (Count)
board.processor.cores9.core.lsq0.memOrderViolation         2055                       # Number of memory ordering violations (Count)
board.processor.cores9.core.lsq0.squashedStores        12445                       # Number of stores squashed (Count)
board.processor.cores9.core.lsq0.rescheduledLoads            0                       # Number of loads that were rescheduled (Count)
board.processor.cores9.core.lsq0.blockedByCache            0                       # Number of times an access to memory failed due to the cache being blocked (Count)
board.processor.cores9.core.lsq0.loadToUse::samples        33339                       # Distribution of cycle latency between the first time a load is issued and its completion (Unspecified)
board.processor.cores9.core.lsq0.loadToUse::mean    55.745883                       # Distribution of cycle latency between the first time a load is issued and its completion (Unspecified)
board.processor.cores9.core.lsq0.loadToUse::stdev   206.793259                       # Distribution of cycle latency between the first time a load is issued and its completion (Unspecified)
board.processor.cores9.core.lsq0.loadToUse::0-9        31119     93.34%     93.34% # Distribution of cycle latency between the first time a load is issued and its completion (Unspecified)
board.processor.cores9.core.lsq0.loadToUse::10-19            8      0.02%     93.37% # Distribution of cycle latency between the first time a load is issued and its completion (Unspecified)
board.processor.cores9.core.lsq0.loadToUse::20-29            2      0.01%     93.37% # Distribution of cycle latency between the first time a load is issued and its completion (Unspecified)
board.processor.cores9.core.lsq0.loadToUse::50-59          128      0.38%     93.76% # Distribution of cycle latency between the first time a load is issued and its completion (Unspecified)
board.processor.cores9.core.lsq0.loadToUse::60-69           16      0.05%     93.80% # Distribution of cycle latency between the first time a load is issued and its completion (Unspecified)
board.processor.cores9.core.lsq0.loadToUse::70-79            2      0.01%     93.81% # Distribution of cycle latency between the first time a load is issued and its completion (Unspecified)
board.processor.cores9.core.lsq0.loadToUse::80-89           11      0.03%     93.84% # Distribution of cycle latency between the first time a load is issued and its completion (Unspecified)
board.processor.cores9.core.lsq0.loadToUse::90-99            1      0.00%     93.85% # Distribution of cycle latency between the first time a load is issued and its completion (Unspecified)
board.processor.cores9.core.lsq0.loadToUse::150-159            1      0.00%     93.85% # Distribution of cycle latency between the first time a load is issued and its completion (Unspecified)
board.processor.cores9.core.lsq0.loadToUse::180-189            1      0.00%     93.85% # Distribution of cycle latency between the first time a load is issued and its completion (Unspecified)
board.processor.cores9.core.lsq0.loadToUse::260-269           11      0.03%     93.88% # Distribution of cycle latency between the first time a load is issued and its completion (Unspecified)
board.processor.cores9.core.lsq0.loadToUse::270-279            1      0.00%     93.89% # Distribution of cycle latency between the first time a load is issued and its completion (Unspecified)
board.processor.cores9.core.lsq0.loadToUse::280-289            1      0.00%     93.89% # Distribution of cycle latency between the first time a load is issued and its completion (Unspecified)
board.processor.cores9.core.lsq0.loadToUse::290-299            1      0.00%     93.89% # Distribution of cycle latency between the first time a load is issued and its completion (Unspecified)
board.processor.cores9.core.lsq0.loadToUse::overflows         2036      6.11%    100.00% # Distribution of cycle latency between the first time a load is issued and its completion (Unspecified)
board.processor.cores9.core.lsq0.loadToUse::min_value            2                       # Distribution of cycle latency between the first time a load is issued and its completion (Unspecified)
board.processor.cores9.core.lsq0.loadToUse::max_value          895                       # Distribution of cycle latency between the first time a load is issued and its completion (Unspecified)
board.processor.cores9.core.lsq0.loadToUse::total        33339                       # Distribution of cycle latency between the first time a load is issued and its completion (Unspecified)
board.processor.cores9.core.mmu.dtb.rdAccesses        56084                       # TLB accesses on read requests (Count)
board.processor.cores9.core.mmu.dtb.wrAccesses        16910                       # TLB accesses on write requests (Count)
board.processor.cores9.core.mmu.dtb.rdMisses           64                       # TLB misses on read requests (Count)
board.processor.cores9.core.mmu.dtb.wrMisses           14                       # TLB misses on write requests (Count)
board.processor.cores9.core.mmu.dtb.walker.power_state.pwrStateResidencyTicks::UNDEFINED    949305078                       # Cumulative time (in ticks) in various power states (Tick)
board.processor.cores9.core.mmu.itb.rdAccesses            0                       # TLB accesses on read requests (Count)
board.processor.cores9.core.mmu.itb.wrAccesses        35649                       # TLB accesses on write requests (Count)
board.processor.cores9.core.mmu.itb.rdMisses            0                       # TLB misses on read requests (Count)
board.processor.cores9.core.mmu.itb.wrMisses           89                       # TLB misses on write requests (Count)
board.processor.cores9.core.mmu.itb.walker.power_state.pwrStateResidencyTicks::UNDEFINED    949305078                       # Cumulative time (in ticks) in various power states (Tick)
board.processor.cores9.core.power_state.pwrStateResidencyTicks::ON    949305078                       # Cumulative time (in ticks) in various power states (Tick)
board.processor.cores9.core.rename.squashCycles         2192                       # Number of cycles rename is squashing (Cycle)
board.processor.cores9.core.rename.idleCycles        29627                       # Number of cycles rename is idle (Cycle)
board.processor.cores9.core.rename.blockCycles      1823777                       # Number of cycles rename is blocking (Cycle)
board.processor.cores9.core.rename.serializeStallCycles            0                       # count of cycles rename stalled for serializing inst (Cycle)
board.processor.cores9.core.rename.runCycles        46093                       # Number of cycles rename is running (Cycle)
board.processor.cores9.core.rename.unblockCycles        21617                       # Number of cycles rename is unblocking (Cycle)
board.processor.cores9.core.rename.renamedInsts       335299                       # Number of instructions processed by rename (Count)
board.processor.cores9.core.rename.ROBFullEvents           16                       # Number of times rename has blocked due to ROB full (Count)
board.processor.cores9.core.rename.IQFullEvents        16540                       # Number of times rename has blocked due to IQ full (Count)
board.processor.cores9.core.rename.LQFullEvents           65                       # Number of times rename has blocked due to LQ full (Count)
board.processor.cores9.core.rename.SQFullEvents          772                       # Number of times rename has blocked due to SQ full (Count)
board.processor.cores9.core.rename.renamedOperands       514332                       # Number of destination operands rename has renamed (Count)
board.processor.cores9.core.rename.lookups      1023621                       # Number of register rename lookups that rename has made (Count)
board.processor.cores9.core.rename.intLookups       390811                       # Number of integer rename lookups (Count)
board.processor.cores9.core.rename.fpLookups           15                       # Number of floating rename lookups (Count)
board.processor.cores9.core.rename.committedMaps       196362                       # Number of HB maps that are committed (Count)
board.processor.cores9.core.rename.undoneMaps       317970                       # Number of HB maps that are undone due to squashing (Count)
board.processor.cores9.core.rename.serializing            0                       # count of serializing insts renamed (Count)
board.processor.cores9.core.rename.tempSerializing            0                       # count of temporary serializing insts renamed (Count)
board.processor.cores9.core.rename.skidInsts        66181                       # count of insts added to the skid buffer (Count)
board.processor.cores9.core.rob.reads         2210323                       # The number of ROB reads (Count)
board.processor.cores9.core.rob.writes         661600                       # The number of ROB writes (Count)
board.processor.cores9.core.thread_0.numInsts        77732                       # Number of Instructions committed (Count)
board.processor.cores9.core.thread_0.numOps       133179                       # Number of Ops committed (Count)
board.processor.cores9.core.thread_0.numMemRefs            0                       # Number of Memory References (Count)
board.workload.inst.arm                             0                       # number of arm instructions executed (Count)
board.workload.inst.quiesce                         0                       # number of quiesce instructions executed (Count)

---------- End Simulation Statistics   ----------
