
---------- Begin Simulation Statistics ----------
simSeconds                                   0.000915                       # Number of seconds simulated (Second)
simTicks                                    914866884                       # Number of ticks simulated (Tick)
finalTick                                  1177842312                       # Number of ticks from beginning of simulation (restored from checkpoints and never reset) (Tick)
simFreq                                  1000000000000                       # The number of ticks per simulated second ((Tick/Second))
hostSeconds                                     52.08                       # Real time elapsed on the host (Second)
hostTickRate                                 17566618                       # The number of ticks simulated per host second (ticks/s) ((Tick/Second))
hostMemory                                    1798464                       # Number of bytes of host memory used (Byte)
simInsts                                      1666940                       # Number of instructions simulated (Count)
simOps                                        2893486                       # Number of ops (including micro ops) simulated (Count)
hostInstRate                                    32007                       # Simulator instruction rate (inst/s) ((Count/Second))
hostOpRate                                      55559                       # Simulator op (including micro ops) rate (op/s) ((Count/Second))
board.cache_hierarchy.ruby_system.delayHistogram::bucket_size         1024                       # delay histogram for all message (Unspecified)
board.cache_hierarchy.ruby_system.delayHistogram::max_bucket        10239                       # delay histogram for all message (Unspecified)
board.cache_hierarchy.ruby_system.delayHistogram::samples       152729                       # delay histogram for all message (Unspecified)
board.cache_hierarchy.ruby_system.delayHistogram::mean  1714.871681                       # delay histogram for all message (Unspecified)
board.cache_hierarchy.ruby_system.delayHistogram::stdev  3379.891967                       # delay histogram for all message (Unspecified)
board.cache_hierarchy.ruby_system.delayHistogram |      120740     79.06%     79.06% |         365      0.24%     79.29% |         276      0.18%     79.47% |         456      0.30%     79.77% |         395      0.26%     80.03% |         562      0.37%     80.40% |        1252      0.82%     81.22% |        2810      1.84%     83.06% |       25873     16.94%    100.00% |           0      0.00%    100.00% # delay histogram for all message (Unspecified)
board.cache_hierarchy.ruby_system.delayHistogram::total       152729                       # delay histogram for all message (Unspecified)
board.cache_hierarchy.ruby_system.m_outstandReqHistSeqr::bucket_size            2                       (Unspecified)
board.cache_hierarchy.ruby_system.m_outstandReqHistSeqr::max_bucket           19                       (Unspecified)
board.cache_hierarchy.ruby_system.m_outstandReqHistSeqr::samples      1103023                       (Unspecified)
board.cache_hierarchy.ruby_system.m_outstandReqHistSeqr::mean     1.146326                       (Unspecified)
board.cache_hierarchy.ruby_system.m_outstandReqHistSeqr::gmean     1.099781                       (Unspecified)
board.cache_hierarchy.ruby_system.m_outstandReqHistSeqr::stdev     0.436353                       (Unspecified)
board.cache_hierarchy.ruby_system.m_outstandReqHistSeqr |      961584     87.18%     87.18% |      137062     12.43%     99.60% |        3841      0.35%     99.95% |         334      0.03%     99.98% |          75      0.01%     99.99% |          43      0.00%     99.99% |          50      0.00%    100.00% |          26      0.00%    100.00% |           8      0.00%    100.00% |           0      0.00%    100.00% (Unspecified)
board.cache_hierarchy.ruby_system.m_outstandReqHistSeqr::total      1103023                       (Unspecified)
board.cache_hierarchy.ruby_system.m_latencyHistSeqr::bucket_size          128                       (Unspecified)
board.cache_hierarchy.ruby_system.m_latencyHistSeqr::max_bucket         1279                       (Unspecified)
board.cache_hierarchy.ruby_system.m_latencyHistSeqr::samples      1103491                       (Unspecified)
board.cache_hierarchy.ruby_system.m_latencyHistSeqr::mean    36.181364                       (Unspecified)
board.cache_hierarchy.ruby_system.m_latencyHistSeqr::gmean     1.266231                       (Unspecified)
board.cache_hierarchy.ruby_system.m_latencyHistSeqr::stdev   200.819089                       (Unspecified)
board.cache_hierarchy.ruby_system.m_latencyHistSeqr |     1069758     96.94%     96.94% |        1399      0.13%     97.07% |         220      0.02%     97.09% |         198      0.02%     97.11% |         370      0.03%     97.14% |         325      0.03%     97.17% |         419      0.04%     97.21% |         774      0.07%     97.28% |        1410      0.13%     97.41% |       28618      2.59%    100.00% (Unspecified)
board.cache_hierarchy.ruby_system.m_latencyHistSeqr::total      1103491                       (Unspecified)
board.cache_hierarchy.ruby_system.m_hitLatencyHistSeqr::bucket_size           32                       (Unspecified)
board.cache_hierarchy.ruby_system.m_hitLatencyHistSeqr::max_bucket          319                       (Unspecified)
board.cache_hierarchy.ruby_system.m_hitLatencyHistSeqr::samples      1063636                       (Unspecified)
board.cache_hierarchy.ruby_system.m_hitLatencyHistSeqr::mean     1.001102                       (Unspecified)
board.cache_hierarchy.ruby_system.m_hitLatencyHistSeqr::gmean     1.000322                       (Unspecified)
board.cache_hierarchy.ruby_system.m_hitLatencyHistSeqr::stdev     0.326357                       (Unspecified)
board.cache_hierarchy.ruby_system.m_hitLatencyHistSeqr |     1063631    100.00%    100.00% |           1      0.00%    100.00% |           0      0.00%    100.00% |           0      0.00%    100.00% |           2      0.00%    100.00% |           1      0.00%    100.00% |           1      0.00%    100.00% |           0      0.00%    100.00% |           0      0.00%    100.00% |           0      0.00%    100.00% (Unspecified)
board.cache_hierarchy.ruby_system.m_hitLatencyHistSeqr::total      1063636                       (Unspecified)
board.cache_hierarchy.ruby_system.m_missLatencyHistSeqr::bucket_size          128                       (Unspecified)
board.cache_hierarchy.ruby_system.m_missLatencyHistSeqr::max_bucket         1279                       (Unspecified)
board.cache_hierarchy.ruby_system.m_missLatencyHistSeqr::samples        39855                       (Unspecified)
board.cache_hierarchy.ruby_system.m_missLatencyHistSeqr::mean   975.059641                       (Unspecified)
board.cache_hierarchy.ruby_system.m_missLatencyHistSeqr::gmean   683.289705                       (Unspecified)
board.cache_hierarchy.ruby_system.m_missLatencyHistSeqr::stdev   449.527036                       (Unspecified)
board.cache_hierarchy.ruby_system.m_missLatencyHistSeqr |        6126     15.37%     15.37% |        1395      3.50%     18.87% |         220      0.55%     19.42% |         198      0.50%     19.92% |         370      0.93%     20.85% |         325      0.82%     21.66% |         419      1.05%     22.71% |         774      1.94%     24.66% |        1410      3.54%     28.19% |       28618     71.81%    100.00% (Unspecified)
board.cache_hierarchy.ruby_system.m_missLatencyHistSeqr::total        39855                       (Unspecified)
board.cache_hierarchy.ruby_system.delayVCHist.vnet_0::bucket_size         1024                       # delay histogram for vnet_0 (Unspecified)
board.cache_hierarchy.ruby_system.delayVCHist.vnet_0::max_bucket        10239                       # delay histogram for vnet_0 (Unspecified)
board.cache_hierarchy.ruby_system.delayVCHist.vnet_0::samples        76685                       # delay histogram for vnet_0 (Unspecified)
board.cache_hierarchy.ruby_system.delayVCHist.vnet_0::mean  3415.353055                       # delay histogram for vnet_0 (Unspecified)
board.cache_hierarchy.ruby_system.delayVCHist.vnet_0::stdev  4116.342260                       # delay histogram for vnet_0 (Unspecified)
board.cache_hierarchy.ruby_system.delayVCHist.vnet_0 |       44696     58.29%     58.29% |         365      0.48%     58.76% |         276      0.36%     59.12% |         456      0.59%     59.72% |         395      0.52%     60.23% |         562      0.73%     60.96% |        1252      1.63%     62.60% |        2810      3.66%     66.26% |       25873     33.74%    100.00% |           0      0.00%    100.00% # delay histogram for vnet_0 (Unspecified)
board.cache_hierarchy.ruby_system.delayVCHist.vnet_0::total        76685                       # delay histogram for vnet_0 (Unspecified)
board.cache_hierarchy.ruby_system.delayVCHist.vnet_1::bucket_size            4                       # delay histogram for vnet_1 (Unspecified)
board.cache_hierarchy.ruby_system.delayVCHist.vnet_1::max_bucket           39                       # delay histogram for vnet_1 (Unspecified)
board.cache_hierarchy.ruby_system.delayVCHist.vnet_1::samples        42317                       # delay histogram for vnet_1 (Unspecified)
board.cache_hierarchy.ruby_system.delayVCHist.vnet_1::mean     0.101330                       # delay histogram for vnet_1 (Unspecified)
board.cache_hierarchy.ruby_system.delayVCHist.vnet_1::stdev     0.911915                       # delay histogram for vnet_1 (Unspecified)
board.cache_hierarchy.ruby_system.delayVCHist.vnet_1 |       41772     98.71%     98.71% |         219      0.52%     99.23% |         290      0.69%     99.91% |           9      0.02%     99.94% |          20      0.05%     99.98% |           0      0.00%     99.98% |           6      0.01%    100.00% |           1      0.00%    100.00% |           0      0.00%    100.00% |           0      0.00%    100.00% # delay histogram for vnet_1 (Unspecified)
board.cache_hierarchy.ruby_system.delayVCHist.vnet_1::total        42317                       # delay histogram for vnet_1 (Unspecified)
board.cache_hierarchy.ruby_system.delayVCHist.vnet_2::bucket_size            1                       # delay histogram for vnet_2 (Unspecified)
board.cache_hierarchy.ruby_system.delayVCHist.vnet_2::max_bucket            9                       # delay histogram for vnet_2 (Unspecified)
board.cache_hierarchy.ruby_system.delayVCHist.vnet_2::samples        33727                       # delay histogram for vnet_2 (Unspecified)
board.cache_hierarchy.ruby_system.delayVCHist.vnet_2 |       33727    100.00%    100.00% |           0      0.00%    100.00% |           0      0.00%    100.00% |           0      0.00%    100.00% |           0      0.00%    100.00% |           0      0.00%    100.00% |           0      0.00%    100.00% |           0      0.00%    100.00% |           0      0.00%    100.00% |           0      0.00%    100.00% # delay histogram for vnet_2 (Unspecified)
board.cache_hierarchy.ruby_system.delayVCHist.vnet_2::total        33727                       # delay histogram for vnet_2 (Unspecified)
board.cache_hierarchy.ruby_system.Directory_Controller.Fetch         1236      0.00%      0.00% (Unspecified)
board.cache_hierarchy.ruby_system.Directory_Controller.Memory_Data         1236      0.00%      0.00% (Unspecified)
board.cache_hierarchy.ruby_system.Directory_Controller.I.Fetch         1236      0.00%      0.00% (Unspecified)
board.cache_hierarchy.ruby_system.Directory_Controller.IM.Memory_Data         1236      0.00%      0.00% (Unspecified)
board.cache_hierarchy.ruby_system.L1Cache_Controller.Load |       12578      4.43%      4.43% |       16993      5.99%     10.42% |       16932      5.97%     16.39% |       16929      5.97%     22.35% |       16939      5.97%     28.32% |       16949      5.97%     34.29% |       16942      5.97%     40.26% |       16947      5.97%     46.24% |       16944      5.97%     52.21% |       16945      5.97%     58.18% |       16932      5.97%     64.14% |       16966      5.98%     70.12% |       16947      5.97%     76.09% |       16968      5.98%     82.07% |       16969      5.98%     88.05% |       16948      5.97%     94.02% |       16958      5.98%    100.00% (Unspecified)
board.cache_hierarchy.ruby_system.L1Cache_Controller.Load::total       283786                       (Unspecified)
board.cache_hierarchy.ruby_system.L1Cache_Controller.Ifetch |       22023      4.19%      4.19% |       31470      5.98%     10.17% |       31480      5.98%     16.15% |       31501      5.99%     22.14% |       31486      5.98%     28.12% |       31489      5.98%     34.11% |       31485      5.98%     40.09% |       31493      5.99%     46.08% |       31475      5.98%     52.06% |       31483      5.98%     58.04% |       31485      5.98%     64.03% |       31562      6.00%     70.03% |       31493      5.99%     76.01% |       31565      6.00%     82.01% |       31551      6.00%     88.01% |       31552      6.00%     94.00% |       31546      6.00%    100.00% (Unspecified)
board.cache_hierarchy.ruby_system.L1Cache_Controller.Ifetch::total       526139                       (Unspecified)
board.cache_hierarchy.ruby_system.L1Cache_Controller.Store |       22360      7.62%      7.62% |       17136      5.84%     13.45% |       16841      5.74%     19.19% |       16841      5.74%     24.93% |       16841      5.74%     30.66% |       16841      5.74%     36.40% |       16841      5.74%     42.14% |       16841      5.74%     47.87% |       16841      5.74%     53.61% |       16841      5.74%     59.35% |       16841      5.74%     65.08% |       17132      5.84%     70.92% |       16841      5.74%     76.66% |       17132      5.84%     82.49% |       17132      5.84%     88.33% |       17132      5.84%     94.16% |       17132      5.84%    100.00% (Unspecified)
board.cache_hierarchy.ruby_system.L1Cache_Controller.Store::total       293566                       (Unspecified)
board.cache_hierarchy.ruby_system.L1Cache_Controller.Inv |          89     33.58%     33.58% |          10      3.77%     37.36% |          10      3.77%     41.13% |          11      4.15%     45.28% |          11      4.15%     49.43% |          12      4.53%     53.96% |          10      3.77%     57.74% |          11      4.15%     61.89% |          11      4.15%     66.04% |          13      4.91%     70.94% |          13      4.91%     75.85% |          11      4.15%     80.00% |           9      3.40%     83.40% |          11      4.15%     87.55% |          11      4.15%     91.70% |          11      4.15%     95.85% |          11      4.15%    100.00% (Unspecified)
board.cache_hierarchy.ruby_system.L1Cache_Controller.Inv::total          265                       (Unspecified)
board.cache_hierarchy.ruby_system.L1Cache_Controller.L1_Replacement |         899     99.56%     99.56% |           0      0.00%     99.56% |           0      0.00%     99.56% |           0      0.00%     99.56% |           0      0.00%     99.56% |           2      0.22%     99.78% |           0      0.00%     99.78% |           0      0.00%     99.78% |           0      0.00%     99.78% |           2      0.22%    100.00% |           0      0.00%    100.00% |           0      0.00%    100.00% |           0      0.00%    100.00% |           0      0.00%    100.00% |           0      0.00%    100.00% |           0      0.00%    100.00% |           0      0.00%    100.00% (Unspecified)
board.cache_hierarchy.ruby_system.L1Cache_Controller.L1_Replacement::total          903                       (Unspecified)
board.cache_hierarchy.ruby_system.L1Cache_Controller.Fwd_GETX |          43      0.13%      0.13% |        1978      6.02%      6.15% |        2056      6.26%     12.41% |        2061      6.27%     18.68% |        2061      6.27%     24.95% |        2061      6.27%     31.22% |        2061      6.27%     37.49% |        2061      6.27%     43.76% |        2061      6.27%     50.03% |        2061      6.27%     56.31% |        2061      6.27%     62.58% |        2050      6.24%     68.82% |        2050      6.24%     75.05% |        2051      6.24%     81.30% |        2051      6.24%     87.54% |        2052      6.24%     93.78% |        2044      6.22%    100.00% (Unspecified)
board.cache_hierarchy.ruby_system.L1Cache_Controller.Fwd_GETX::total        32863                       (Unspecified)
board.cache_hierarchy.ruby_system.L1Cache_Controller.Fwd_GETS |         405     67.61%     67.61% |          20      3.34%     70.95% |          13      2.17%     73.12% |          13      2.17%     75.29% |          13      2.17%     77.46% |          13      2.17%     79.63% |          14      2.34%     81.97% |          13      2.17%     84.14% |          13      2.17%     86.31% |          13      2.17%     88.48% |          14      2.34%     90.82% |          12      2.00%     92.82% |           8      1.34%     94.16% |          10      1.67%     95.83% |           9      1.50%     97.33% |           8      1.34%     98.66% |           8      1.34%    100.00% (Unspecified)
board.cache_hierarchy.ruby_system.L1Cache_Controller.Fwd_GETS::total          599                       (Unspecified)
board.cache_hierarchy.ruby_system.L1Cache_Controller.Data |           1     20.00%     20.00% |           0      0.00%     20.00% |           0      0.00%     20.00% |           0      0.00%     20.00% |           0      0.00%     20.00% |           0      0.00%     20.00% |           0      0.00%     20.00% |           0      0.00%     20.00% |           0      0.00%     20.00% |           0      0.00%     20.00% |           0      0.00%     20.00% |           1     20.00%     40.00% |           1     20.00%     60.00% |           1     20.00%     80.00% |           1     20.00%    100.00% |           0      0.00%    100.00% |           0      0.00%    100.00% (Unspecified)
board.cache_hierarchy.ruby_system.L1Cache_Controller.Data::total            5                       (Unspecified)
board.cache_hierarchy.ruby_system.L1Cache_Controller.Data_Exclusive |          79      4.05%      4.05% |         139      7.12%     11.17% |         132      6.77%     17.94% |         132      6.77%     24.71% |         133      6.82%     31.52% |         133      6.82%     38.34% |         133      6.82%     45.16% |         133      6.82%     51.97% |         133      6.82%     58.79% |         133      6.82%     65.61% |         133      6.82%     72.42% |         132      6.77%     79.19% |         132      6.77%     85.96% |         126      6.46%     92.41% |          74      3.79%     96.21% |          35      1.79%     98.00% |          39      2.00%    100.00% (Unspecified)
board.cache_hierarchy.ruby_system.L1Cache_Controller.Data_Exclusive::total         1951                       (Unspecified)
board.cache_hierarchy.ruby_system.L1Cache_Controller.DataS_fromL1 |          61     10.18%     10.18% |          20      3.34%     13.52% |          24      4.01%     17.53% |          17      2.84%     20.37% |          19      3.17%     23.54% |          19      3.17%     26.71% |          16      2.67%     29.38% |          18      3.01%     32.39% |          18      3.01%     35.39% |          17      2.84%     38.23% |          17      2.84%     41.07% |          16      2.67%     43.74% |          16      2.67%     46.41% |          22      3.67%     50.08% |          75     12.52%     62.60% |         114     19.03%     81.64% |         110     18.36%    100.00% (Unspecified)
board.cache_hierarchy.ruby_system.L1Cache_Controller.DataS_fromL1::total          599                       (Unspecified)
board.cache_hierarchy.ruby_system.L1Cache_Controller.Data_all_Acks |         800      2.16%      2.16% |        2211      5.96%      8.12% |        2237      6.03%     14.15% |        2250      6.07%     20.22% |        2248      6.06%     26.28% |        2252      6.07%     32.35% |        2252      6.07%     38.43% |        2253      6.08%     44.50% |        2250      6.07%     50.57% |        2255      6.08%     56.65% |        2251      6.07%     62.72% |        2312      6.23%     68.95% |        2251      6.07%     75.02% |        2315      6.24%     81.27% |        2315      6.24%     87.51% |        2320      6.26%     93.77% |        2312      6.23%    100.00% (Unspecified)
board.cache_hierarchy.ruby_system.L1Cache_Controller.Data_all_Acks::total        37084                       (Unspecified)
board.cache_hierarchy.ruby_system.L1Cache_Controller.Ack |          40     15.38%     15.38% |          10      3.85%     19.23% |          13      5.00%     24.23% |          12      4.62%     28.85% |          13      5.00%     33.85% |          12      4.62%     38.46% |          13      5.00%     43.46% |          14      5.38%     48.85% |          14      5.38%     54.23% |          13      5.00%     59.23% |          14      5.38%     64.62% |          23      8.85%     73.46% |          17      6.54%     80.00% |          14      5.38%     85.38% |          14      5.38%     90.77% |          14      5.38%     96.15% |          10      3.85%    100.00% (Unspecified)
board.cache_hierarchy.ruby_system.L1Cache_Controller.Ack::total          260                       (Unspecified)
board.cache_hierarchy.ruby_system.L1Cache_Controller.Ack_all |          35     15.84%     15.84% |          10      4.52%     20.36% |          12      5.43%     25.79% |          12      5.43%     31.22% |          13      5.88%     37.10% |          12      5.43%     42.53% |          12      5.43%     47.96% |          13      5.88%     53.85% |          13      5.88%     59.73% |          12      5.43%     65.16% |          13      5.88%     71.04% |          12      5.43%     76.47% |          13      5.88%     82.35% |          10      4.52%     86.88% |          11      4.98%     91.86% |          10      4.52%     96.38% |           8      3.62%    100.00% (Unspecified)
board.cache_hierarchy.ruby_system.L1Cache_Controller.Ack_all::total          221                       (Unspecified)
board.cache_hierarchy.ruby_system.L1Cache_Controller.WB_Ack |         362    100.00%    100.00% |           0      0.00%    100.00% |           0      0.00%    100.00% |           0      0.00%    100.00% |           0      0.00%    100.00% |           0      0.00%    100.00% |           0      0.00%    100.00% |           0      0.00%    100.00% |           0      0.00%    100.00% |           0      0.00%    100.00% |           0      0.00%    100.00% |           0      0.00%    100.00% |           0      0.00%    100.00% |           0      0.00%    100.00% |           0      0.00%    100.00% |           0      0.00%    100.00% |           0      0.00%    100.00% (Unspecified)
board.cache_hierarchy.ruby_system.L1Cache_Controller.WB_Ack::total          362                       (Unspecified)
board.cache_hierarchy.ruby_system.L1Cache_Controller.NP.Load |         153      5.59%      5.59% |         158      5.77%     11.36% |         162      5.92%     17.28% |         162      5.92%     23.20% |         163      5.96%     29.16% |         164      5.99%     35.15% |         162      5.92%     41.07% |         163      5.96%     47.02% |         163      5.96%     52.98% |         164      5.99%     58.97% |         163      5.96%     64.93% |         159      5.81%     70.73% |         162      5.92%     76.65% |         159      5.81%     82.46% |         160      5.85%     88.31% |         160      5.85%     94.15% |         160      5.85%    100.00% (Unspecified)
board.cache_hierarchy.ruby_system.L1Cache_Controller.NP.Load::total         2737                       (Unspecified)
board.cache_hierarchy.ruby_system.L1Cache_Controller.NP.Ifetch |         352     11.25%     11.25% |         187      5.98%     17.23% |         161      5.15%     22.37% |         162      5.18%     27.55% |         162      5.18%     32.73% |         164      5.24%     37.97% |         164      5.24%     43.21% |         166      5.31%     48.51% |         163      5.21%     53.72% |         165      5.27%     59.00% |         163      5.21%     64.21% |         191      6.10%     70.31% |         163      5.21%     75.52% |         191      6.10%     81.62% |         191      6.10%     87.73% |         193      6.17%     93.90% |         191      6.10%    100.00% (Unspecified)
board.cache_hierarchy.ruby_system.L1Cache_Controller.NP.Ifetch::total         3129                       (Unspecified)
board.cache_hierarchy.ruby_system.L1Cache_Controller.NP.Store |         392     38.47%     38.47% |          60      5.89%     44.36% |          27      2.65%     47.01% |          27      2.65%     49.66% |          27      2.65%     52.31% |          27      2.65%     54.96% |          27      2.65%     57.61% |          27      2.65%     60.26% |          27      2.65%     62.90% |          27      2.65%     65.55% |          27      2.65%     68.20% |          60      5.89%     74.09% |          27      2.65%     76.74% |          60      5.89%     82.63% |          59      5.79%     88.42% |          59      5.79%     94.21% |          59      5.79%    100.00% (Unspecified)
board.cache_hierarchy.ruby_system.L1Cache_Controller.NP.Store::total         1019                       (Unspecified)
board.cache_hierarchy.ruby_system.L1Cache_Controller.NP.Inv |          12    100.00%    100.00% |           0      0.00%    100.00% |           0      0.00%    100.00% |           0      0.00%    100.00% |           0      0.00%    100.00% |           0      0.00%    100.00% |           0      0.00%    100.00% |           0      0.00%    100.00% |           0      0.00%    100.00% |           0      0.00%    100.00% |           0      0.00%    100.00% |           0      0.00%    100.00% |           0      0.00%    100.00% |           0      0.00%    100.00% |           0      0.00%    100.00% |           0      0.00%    100.00% |           0      0.00%    100.00% (Unspecified)
board.cache_hierarchy.ruby_system.L1Cache_Controller.NP.Inv::total           12                       (Unspecified)
board.cache_hierarchy.ruby_system.L1Cache_Controller.I.Load |          39     55.71%     55.71% |           1      1.43%     57.14% |           0      0.00%     57.14% |           0      0.00%     57.14% |           1      1.43%     58.57% |           1      1.43%     60.00% |           0      0.00%     60.00% |           1      1.43%     61.43% |           1      1.43%     62.86% |           1      1.43%     64.29% |           0      0.00%     64.29% |           2      2.86%     67.14% |           0      0.00%     67.14% |           4      5.71%     72.86% |           6      8.57%     81.43% |           8     11.43%     92.86% |           5      7.14%    100.00% (Unspecified)
board.cache_hierarchy.ruby_system.L1Cache_Controller.I.Load::total           70                       (Unspecified)
board.cache_hierarchy.ruby_system.L1Cache_Controller.I.Store |           4      0.01%      0.01% |        1964      6.01%      6.02% |        2043      6.25%     12.27% |        2048      6.27%     18.54% |        2047      6.26%     24.80% |        2048      6.27%     31.07% |        2048      6.27%     37.34% |        2047      6.26%     43.60% |        2047      6.26%     49.86% |        2048      6.27%     56.13% |        2048      6.27%     62.40% |        2049      6.27%     68.67% |        2047      6.26%     74.93% |        2049      6.27%     81.20% |        2049      6.27%     87.47% |        2049      6.27%     93.74% |        2046      6.26%    100.00% (Unspecified)
board.cache_hierarchy.ruby_system.L1Cache_Controller.I.Store::total        32681                       (Unspecified)
board.cache_hierarchy.ruby_system.L1Cache_Controller.I.L1_Replacement |          57    100.00%    100.00% |           0      0.00%    100.00% |           0      0.00%    100.00% |           0      0.00%    100.00% |           0      0.00%    100.00% |           0      0.00%    100.00% |           0      0.00%    100.00% |           0      0.00%    100.00% |           0      0.00%    100.00% |           0      0.00%    100.00% |           0      0.00%    100.00% |           0      0.00%    100.00% |           0      0.00%    100.00% |           0      0.00%    100.00% |           0      0.00%    100.00% |           0      0.00%    100.00% |           0      0.00%    100.00% (Unspecified)
board.cache_hierarchy.ruby_system.L1Cache_Controller.I.L1_Replacement::total           57                       (Unspecified)
board.cache_hierarchy.ruby_system.L1Cache_Controller.S.Load |         282      5.41%      5.41% |          53      1.02%      6.43% |          68      1.31%      7.74% |          64      1.23%      8.97% |          64      1.23%     10.20% |          65      1.25%     11.44% |          65      1.25%     12.69% |          64      1.23%     13.92% |          64      1.23%     15.15% |          57      1.09%     16.24% |          65      1.25%     17.49% |          68      1.31%     18.80% |          74      1.42%     20.22% |         170      3.26%     23.48% |         962     18.47%     41.95% |        1541     29.59%     71.54% |        1482     28.46%    100.00% (Unspecified)
board.cache_hierarchy.ruby_system.L1Cache_Controller.S.Load::total         5208                       (Unspecified)
board.cache_hierarchy.ruby_system.L1Cache_Controller.S.Ifetch |       21670      4.14%      4.14% |       31283      5.98%     10.12% |       31319      5.99%     16.11% |       31339      5.99%     22.10% |       31324      5.99%     28.09% |       31325      5.99%     34.08% |       31321      5.99%     40.07% |       31327      5.99%     46.06% |       31312      5.99%     52.05% |       31318      5.99%     58.04% |       31322      5.99%     64.03% |       31371      6.00%     70.02% |       31330      5.99%     76.01% |       31374      6.00%     82.01% |       31360      6.00%     88.01% |       31359      6.00%     94.00% |       31355      6.00%    100.00% (Unspecified)
board.cache_hierarchy.ruby_system.L1Cache_Controller.S.Ifetch::total       523009                       (Unspecified)
board.cache_hierarchy.ruby_system.L1Cache_Controller.S.Store |          34     15.60%     15.60% |          10      4.59%     20.18% |          12      5.50%     25.69% |          12      5.50%     31.19% |          13      5.96%     37.16% |          12      5.50%     42.66% |          12      5.50%     48.17% |          13      5.96%     54.13% |          13      5.96%     60.09% |          12      5.50%     65.60% |          13      5.96%     71.56% |          11      5.05%     76.61% |          13      5.96%     82.57% |          10      4.59%     87.16% |          10      4.59%     91.74% |          10      4.59%     96.33% |           8      3.67%    100.00% (Unspecified)
board.cache_hierarchy.ruby_system.L1Cache_Controller.S.Store::total          218                       (Unspecified)
board.cache_hierarchy.ruby_system.L1Cache_Controller.S.Inv |          77     30.68%     30.68% |          10      3.98%     34.66% |          10      3.98%     38.65% |          11      4.38%     43.03% |          11      4.38%     47.41% |          12      4.78%     52.19% |          10      3.98%     56.18% |          11      4.38%     60.56% |          11      4.38%     64.94% |          13      5.18%     70.12% |          13      5.18%     75.30% |          11      4.38%     79.68% |           8      3.19%     82.87% |          10      3.98%     86.85% |          11      4.38%     91.24% |          11      4.38%     95.62% |          11      4.38%    100.00% (Unspecified)
board.cache_hierarchy.ruby_system.L1Cache_Controller.S.Inv::total          251                       (Unspecified)
board.cache_hierarchy.ruby_system.L1Cache_Controller.S.L1_Replacement |         480     99.17%     99.17% |           0      0.00%     99.17% |           0      0.00%     99.17% |           0      0.00%     99.17% |           0      0.00%     99.17% |           2      0.41%     99.59% |           0      0.00%     99.59% |           0      0.00%     99.59% |           0      0.00%     99.59% |           2      0.41%    100.00% |           0      0.00%    100.00% |           0      0.00%    100.00% |           0      0.00%    100.00% |           0      0.00%    100.00% |           0      0.00%    100.00% |           0      0.00%    100.00% |           0      0.00%    100.00% (Unspecified)
board.cache_hierarchy.ruby_system.L1Cache_Controller.S.L1_Replacement::total          484                       (Unspecified)
board.cache_hierarchy.ruby_system.L1Cache_Controller.E.Load |        1776      6.21%      6.21% |        1931      6.75%     12.96% |        1916      6.70%     19.66% |        1916      6.70%     26.35% |        1916      6.70%     33.05% |        1916      6.70%     39.75% |        1920      6.71%     46.46% |        1916      6.70%     53.16% |        1916      6.70%     59.85% |        1916      6.70%     66.55% |        1916      6.70%     73.25% |        1916      6.70%     79.95% |        1916      6.70%     86.64% |        1826      6.38%     93.03% |        1035      3.62%     96.64% |         450      1.57%     98.22% |         510      1.78%    100.00% (Unspecified)
board.cache_hierarchy.ruby_system.L1Cache_Controller.E.Load::total        28608                       (Unspecified)
board.cache_hierarchy.ruby_system.L1Cache_Controller.E.Store |          21     87.50%     87.50% |           0      0.00%     87.50% |           0      0.00%     87.50% |           0      0.00%     87.50% |           0      0.00%     87.50% |           0      0.00%     87.50% |           0      0.00%     87.50% |           0      0.00%     87.50% |           0      0.00%     87.50% |           0      0.00%     87.50% |           0      0.00%     87.50% |           0      0.00%     87.50% |           0      0.00%     87.50% |           0      0.00%     87.50% |           1      4.17%     91.67% |           1      4.17%     95.83% |           1      4.17%    100.00% (Unspecified)
board.cache_hierarchy.ruby_system.L1Cache_Controller.E.Store::total           24                       (Unspecified)
board.cache_hierarchy.ruby_system.L1Cache_Controller.E.L1_Replacement |          13    100.00%    100.00% |           0      0.00%    100.00% |           0      0.00%    100.00% |           0      0.00%    100.00% |           0      0.00%    100.00% |           0      0.00%    100.00% |           0      0.00%    100.00% |           0      0.00%    100.00% |           0      0.00%    100.00% |           0      0.00%    100.00% |           0      0.00%    100.00% |           0      0.00%    100.00% |           0      0.00%    100.00% |           0      0.00%    100.00% |           0      0.00%    100.00% |           0      0.00%    100.00% |           0      0.00%    100.00% (Unspecified)
board.cache_hierarchy.ruby_system.L1Cache_Controller.E.L1_Replacement::total           13                       (Unspecified)
board.cache_hierarchy.ruby_system.L1Cache_Controller.E.Fwd_GETS |           7     16.28%     16.28% |           8     18.60%     34.88% |           2      4.65%     39.53% |           2      4.65%     44.19% |           2      4.65%     48.84% |           2      4.65%     53.49% |           3      6.98%     60.47% |           2      4.65%     65.12% |           2      4.65%     69.77% |           2      4.65%     74.42% |           2      4.65%     79.07% |           2      4.65%     83.72% |           2      4.65%     88.37% |           2      4.65%     93.02% |           1      2.33%     95.35% |           1      2.33%     97.67% |           1      2.33%    100.00% (Unspecified)
board.cache_hierarchy.ruby_system.L1Cache_Controller.E.Fwd_GETS::total           43                       (Unspecified)
board.cache_hierarchy.ruby_system.L1Cache_Controller.M.Load |       10328      4.18%      4.18% |       14850      6.01%     10.19% |       14786      5.98%     16.17% |       14787      5.98%     22.15% |       14795      5.99%     28.14% |       14803      5.99%     34.13% |       14795      5.99%     40.11% |       14803      5.99%     46.10% |       14800      5.99%     52.09% |       14807      5.99%     58.08% |       14788      5.98%     64.06% |       14821      6.00%     70.06% |       14795      5.99%     76.05% |       14809      5.99%     82.04% |       14806      5.99%     88.03% |       14789      5.98%     94.01% |       14801      5.99%    100.00% (Unspecified)
board.cache_hierarchy.ruby_system.L1Cache_Controller.M.Load::total       247163                       (Unspecified)
board.cache_hierarchy.ruby_system.L1Cache_Controller.M.Store |       21909      8.44%      8.44% |       15102      5.82%     14.26% |       14759      5.68%     19.94% |       14754      5.68%     25.62% |       14754      5.68%     31.31% |       14754      5.68%     36.99% |       14754      5.68%     42.67% |       14754      5.68%     48.35% |       14754      5.68%     54.04% |       14754      5.68%     59.72% |       14753      5.68%     65.40% |       15012      5.78%     71.18% |       14754      5.68%     76.87% |       15013      5.78%     82.65% |       15013      5.78%     88.43% |       15013      5.78%     94.22% |       15018      5.78%    100.00% (Unspecified)
board.cache_hierarchy.ruby_system.L1Cache_Controller.M.Store::total       259624                       (Unspecified)
board.cache_hierarchy.ruby_system.L1Cache_Controller.M.L1_Replacement |         349    100.00%    100.00% |           0      0.00%    100.00% |           0      0.00%    100.00% |           0      0.00%    100.00% |           0      0.00%    100.00% |           0      0.00%    100.00% |           0      0.00%    100.00% |           0      0.00%    100.00% |           0      0.00%    100.00% |           0      0.00%    100.00% |           0      0.00%    100.00% |           0      0.00%    100.00% |           0      0.00%    100.00% |           0      0.00%    100.00% |           0      0.00%    100.00% |           0      0.00%    100.00% |           0      0.00%    100.00% (Unspecified)
board.cache_hierarchy.ruby_system.L1Cache_Controller.M.L1_Replacement::total          349                       (Unspecified)
board.cache_hierarchy.ruby_system.L1Cache_Controller.M.Fwd_GETX |          43      0.13%      0.13% |        1978      6.02%      6.15% |        2056      6.26%     12.41% |        2061      6.27%     18.68% |        2061      6.27%     24.95% |        2061      6.27%     31.22% |        2061      6.27%     37.49% |        2061      6.27%     43.76% |        2061      6.27%     50.03% |        2061      6.27%     56.31% |        2061      6.27%     62.58% |        2050      6.24%     68.82% |        2050      6.24%     75.05% |        2051      6.24%     81.30% |        2051      6.24%     87.54% |        2052      6.24%     93.78% |        2044      6.22%    100.00% (Unspecified)
board.cache_hierarchy.ruby_system.L1Cache_Controller.M.Fwd_GETX::total        32863                       (Unspecified)
board.cache_hierarchy.ruby_system.L1Cache_Controller.M.Fwd_GETS |         398     71.58%     71.58% |          12      2.16%     73.74% |          11      1.98%     75.72% |          11      1.98%     77.70% |          11      1.98%     79.68% |          11      1.98%     81.65% |          11      1.98%     83.63% |          11      1.98%     85.61% |          11      1.98%     87.59% |          11      1.98%     89.57% |          12      2.16%     91.73% |          10      1.80%     93.53% |           6      1.08%     94.60% |           8      1.44%     96.04% |           8      1.44%     97.48% |           7      1.26%     98.74% |           7      1.26%    100.00% (Unspecified)
board.cache_hierarchy.ruby_system.L1Cache_Controller.M.Fwd_GETS::total          556                       (Unspecified)
board.cache_hierarchy.ruby_system.L1Cache_Controller.IS.Data_Exclusive |          79      4.05%      4.05% |         139      7.12%     11.17% |         132      6.77%     17.94% |         132      6.77%     24.71% |         133      6.82%     31.52% |         133      6.82%     38.34% |         133      6.82%     45.16% |         133      6.82%     51.97% |         133      6.82%     58.79% |         133      6.82%     65.61% |         133      6.82%     72.42% |         132      6.77%     79.19% |         132      6.77%     85.96% |         126      6.46%     92.41% |          74      3.79%     96.21% |          35      1.79%     98.00% |          39      2.00%    100.00% (Unspecified)
board.cache_hierarchy.ruby_system.L1Cache_Controller.IS.Data_Exclusive::total         1951                       (Unspecified)
board.cache_hierarchy.ruby_system.L1Cache_Controller.IS.DataS_fromL1 |          61     10.18%     10.18% |          20      3.34%     13.52% |          24      4.01%     17.53% |          17      2.84%     20.37% |          19      3.17%     23.54% |          19      3.17%     26.71% |          16      2.67%     29.38% |          18      3.01%     32.39% |          18      3.01%     35.39% |          17      2.84%     38.23% |          17      2.84%     41.07% |          16      2.67%     43.74% |          16      2.67%     46.41% |          22      3.67%     50.08% |          75     12.52%     62.60% |         114     19.03%     81.64% |         110     18.36%    100.00% (Unspecified)
board.cache_hierarchy.ruby_system.L1Cache_Controller.IS.DataS_fromL1::total          599                       (Unspecified)
board.cache_hierarchy.ruby_system.L1Cache_Controller.IS.Data_all_Acks |         405     11.96%     11.96% |         187      5.52%     17.48% |         167      4.93%     22.41% |         175      5.17%     27.58% |         174      5.14%     32.71% |         177      5.23%     37.94% |         177      5.23%     43.17% |         179      5.28%     48.45% |         176      5.20%     53.65% |         180      5.31%     58.96% |         176      5.20%     64.16% |         204      6.02%     70.18% |         177      5.23%     75.41% |         206      6.08%     81.49% |         208      6.14%     87.63% |         212      6.26%     93.89% |         207      6.11%    100.00% (Unspecified)
board.cache_hierarchy.ruby_system.L1Cache_Controller.IS.Data_all_Acks::total         3387                       (Unspecified)
board.cache_hierarchy.ruby_system.L1Cache_Controller.IM.Data |           1     20.00%     20.00% |           0      0.00%     20.00% |           0      0.00%     20.00% |           0      0.00%     20.00% |           0      0.00%     20.00% |           0      0.00%     20.00% |           0      0.00%     20.00% |           0      0.00%     20.00% |           0      0.00%     20.00% |           0      0.00%     20.00% |           0      0.00%     20.00% |           1     20.00%     40.00% |           1     20.00%     60.00% |           1     20.00%     80.00% |           1     20.00%    100.00% |           0      0.00%    100.00% |           0      0.00%    100.00% (Unspecified)
board.cache_hierarchy.ruby_system.L1Cache_Controller.IM.Data::total            5                       (Unspecified)
board.cache_hierarchy.ruby_system.L1Cache_Controller.IM.Data_all_Acks |         395      1.17%      1.17% |        2024      6.01%      7.18% |        2070      6.14%     13.32% |        2075      6.16%     19.48% |        2074      6.15%     25.63% |        2075      6.16%     31.79% |        2075      6.16%     37.95% |        2074      6.15%     44.10% |        2074      6.15%     50.26% |        2075      6.16%     56.42% |        2075      6.16%     62.58% |        2108      6.26%     68.83% |        2074      6.15%     74.99% |        2109      6.26%     81.24% |        2107      6.25%     87.50% |        2108      6.26%     93.75% |        2105      6.25%    100.00% (Unspecified)
board.cache_hierarchy.ruby_system.L1Cache_Controller.IM.Data_all_Acks::total        33697                       (Unspecified)
board.cache_hierarchy.ruby_system.L1Cache_Controller.SM.Inv |           0      0.00%      0.00% |           0      0.00%      0.00% |           0      0.00%      0.00% |           0      0.00%      0.00% |           0      0.00%      0.00% |           0      0.00%      0.00% |           0      0.00%      0.00% |           0      0.00%      0.00% |           0      0.00%      0.00% |           0      0.00%      0.00% |           0      0.00%      0.00% |           0      0.00%      0.00% |           1     50.00%     50.00% |           1     50.00%    100.00% |           0      0.00%    100.00% |           0      0.00%    100.00% |           0      0.00%    100.00% (Unspecified)
board.cache_hierarchy.ruby_system.L1Cache_Controller.SM.Inv::total            2                       (Unspecified)
board.cache_hierarchy.ruby_system.L1Cache_Controller.SM.Ack |          40     15.38%     15.38% |          10      3.85%     19.23% |          13      5.00%     24.23% |          12      4.62%     28.85% |          13      5.00%     33.85% |          12      4.62%     38.46% |          13      5.00%     43.46% |          14      5.38%     48.85% |          14      5.38%     54.23% |          13      5.00%     59.23% |          14      5.38%     64.62% |          23      8.85%     73.46% |          17      6.54%     80.00% |          14      5.38%     85.38% |          14      5.38%     90.77% |          14      5.38%     96.15% |          10      3.85%    100.00% (Unspecified)
board.cache_hierarchy.ruby_system.L1Cache_Controller.SM.Ack::total          260                       (Unspecified)
board.cache_hierarchy.ruby_system.L1Cache_Controller.SM.Ack_all |          35     15.84%     15.84% |          10      4.52%     20.36% |          12      5.43%     25.79% |          12      5.43%     31.22% |          13      5.88%     37.10% |          12      5.43%     42.53% |          12      5.43%     47.96% |          13      5.88%     53.85% |          13      5.88%     59.73% |          12      5.43%     65.16% |          13      5.88%     71.04% |          12      5.43%     76.47% |          13      5.88%     82.35% |          10      4.52%     86.88% |          11      4.98%     91.86% |          10      4.52%     96.38% |           8      3.62%    100.00% (Unspecified)
board.cache_hierarchy.ruby_system.L1Cache_Controller.SM.Ack_all::total          221                       (Unspecified)
board.cache_hierarchy.ruby_system.L1Cache_Controller.M_I.Ifetch |           1    100.00%    100.00% |           0      0.00%    100.00% |           0      0.00%    100.00% |           0      0.00%    100.00% |           0      0.00%    100.00% |           0      0.00%    100.00% |           0      0.00%    100.00% |           0      0.00%    100.00% |           0      0.00%    100.00% |           0      0.00%    100.00% |           0      0.00%    100.00% |           0      0.00%    100.00% |           0      0.00%    100.00% |           0      0.00%    100.00% |           0      0.00%    100.00% |           0      0.00%    100.00% |           0      0.00%    100.00% (Unspecified)
board.cache_hierarchy.ruby_system.L1Cache_Controller.M_I.Ifetch::total            1                       (Unspecified)
board.cache_hierarchy.ruby_system.L1Cache_Controller.M_I.WB_Ack |         362    100.00%    100.00% |           0      0.00%    100.00% |           0      0.00%    100.00% |           0      0.00%    100.00% |           0      0.00%    100.00% |           0      0.00%    100.00% |           0      0.00%    100.00% |           0      0.00%    100.00% |           0      0.00%    100.00% |           0      0.00%    100.00% |           0      0.00%    100.00% |           0      0.00%    100.00% |           0      0.00%    100.00% |           0      0.00%    100.00% |           0      0.00%    100.00% |           0      0.00%    100.00% |           0      0.00%    100.00% (Unspecified)
board.cache_hierarchy.ruby_system.L1Cache_Controller.M_I.WB_Ack::total          362                       (Unspecified)
board.cache_hierarchy.ruby_system.L2Cache_Controller.L1_GET_INSTR |         200      6.39%      6.39% |         129      4.12%     10.51% |         143      4.57%     15.08% |         172      5.50%     20.58% |         196      6.26%     26.84% |         227      7.25%     34.09% |         246      7.86%     41.95% |         165      5.27%     47.22% |         198      6.33%     53.55% |         222      7.09%     60.64% |         204      6.52%     67.16% |         190      6.07%     73.23% |         200      6.39%     79.62% |         196      6.26%     85.88% |         221      7.06%     92.94% |         221      7.06%    100.00% (Unspecified)
board.cache_hierarchy.ruby_system.L2Cache_Controller.L1_GET_INSTR::total         3130                       (Unspecified)
board.cache_hierarchy.ruby_system.L2Cache_Controller.L1_GETS |         164      5.83%      5.83% |         212      7.54%     13.37% |         192      6.83%     20.20% |         200      7.11%     27.31% |         185      6.58%     33.89% |         184      6.54%     40.43% |         177      6.29%     46.73% |         140      4.98%     51.71% |         139      4.94%     56.65% |         190      6.76%     63.41% |         202      7.18%     70.59% |         133      4.73%     75.32% |         166      5.90%     81.22% |         157      5.58%     86.81% |         189      6.72%     93.53% |         182      6.47%    100.00% (Unspecified)
board.cache_hierarchy.ruby_system.L2Cache_Controller.L1_GETS::total         2812                       (Unspecified)
board.cache_hierarchy.ruby_system.L2Cache_Controller.L1_GETX |      494568     99.80%     99.80% |          61      0.01%     99.81% |          58      0.01%     99.83% |          59      0.01%     99.84% |          94      0.02%     99.86% |         100      0.02%     99.88% |          77      0.02%     99.89% |          84      0.02%     99.91% |          84      0.02%     99.93% |          51      0.01%     99.94% |          58      0.01%     99.95% |          36      0.01%     99.96% |          67      0.01%     99.97% |          67      0.01%     99.98% |          48      0.01%     99.99% |          34      0.01%    100.00% (Unspecified)
board.cache_hierarchy.ruby_system.L2Cache_Controller.L1_GETX::total       495546                       (Unspecified)
board.cache_hierarchy.ruby_system.L2Cache_Controller.L1_UPGRADE |           1      0.46%      0.46% |          62     28.44%     28.90% |          25     11.47%     40.37% |          12      5.50%     45.87% |          13      5.96%     51.83% |          33     15.14%     66.97% |           6      2.75%     69.72% |           5      2.29%     72.02% |           2      0.92%     72.94% |           2      0.92%     73.85% |          23     10.55%     84.40% |           0      0.00%     84.40% |          12      5.50%     89.91% |           3      1.38%     91.28% |          18      8.26%     99.54% |           1      0.46%    100.00% (Unspecified)
board.cache_hierarchy.ruby_system.L2Cache_Controller.L1_UPGRADE::total          218                       (Unspecified)
board.cache_hierarchy.ruby_system.L2Cache_Controller.L1_PUTX |           8      2.21%      2.21% |          17      4.70%      6.91% |          16      4.42%     11.33% |          31      8.56%     19.89% |          46     12.71%     32.60% |          33      9.12%     41.71% |          30      8.29%     50.00% |          15      4.14%     54.14% |          17      4.70%     58.84% |          14      3.87%     62.71% |          30      8.29%     70.99% |          11      3.04%     74.03% |          30      8.29%     82.32% |          39     10.77%     93.09% |          16      4.42%     97.51% |           9      2.49%    100.00% (Unspecified)
board.cache_hierarchy.ruby_system.L2Cache_Controller.L1_PUTX::total          362                       (Unspecified)
board.cache_hierarchy.ruby_system.L2Cache_Controller.Mem_Data |          63      5.10%      5.10% |          75      6.07%     11.17% |          83      6.72%     17.88% |          85      6.88%     24.76% |          99      8.01%     32.77% |         103      8.33%     41.10% |          86      6.96%     48.06% |          80      6.47%     54.53% |          76      6.15%     60.68% |          78      6.31%     66.99% |          62      5.02%     72.01% |          48      3.88%     75.89% |          70      5.66%     81.55% |          80      6.47%     88.03% |          73      5.91%     93.93% |          75      6.07%    100.00% (Unspecified)
board.cache_hierarchy.ruby_system.L2Cache_Controller.Mem_Data::total         1236                       (Unspecified)
board.cache_hierarchy.ruby_system.L2Cache_Controller.WB_Data |          22      3.96%      3.96% |          94     16.91%     20.86% |          58     10.43%     31.29% |          29      5.22%     36.51% |          32      5.76%     42.27% |          58     10.43%     52.70% |          21      3.78%     56.47% |          21      3.78%     60.25% |          19      3.42%     63.67% |          39      7.01%     70.68% |          41      7.37%     78.06% |          18      3.24%     81.29% |          27      4.86%     86.15% |          18      3.24%     89.39% |          35      6.29%     95.68% |          24      4.32%    100.00% (Unspecified)
board.cache_hierarchy.ruby_system.L2Cache_Controller.WB_Data::total          556                       (Unspecified)
board.cache_hierarchy.ruby_system.L2Cache_Controller.WB_Data_clean |          12     27.91%     27.91% |           0      0.00%     27.91% |           1      2.33%     30.23% |          17     39.53%     69.77% |           1      2.33%     72.09% |           1      2.33%     74.42% |           1      2.33%     76.74% |           0      0.00%     76.74% |           0      0.00%     76.74% |           1      2.33%     79.07% |           2      4.65%     83.72% |           0      0.00%     83.72% |           1      2.33%     86.05% |           1      2.33%     88.37% |           3      6.98%     95.35% |           2      4.65%    100.00% (Unspecified)
board.cache_hierarchy.ruby_system.L2Cache_Controller.WB_Data_clean::total           43                       (Unspecified)
board.cache_hierarchy.ruby_system.L2Cache_Controller.Unblock |          34      5.68%      5.68% |          94     15.69%     21.37% |          59      9.85%     31.22% |          46      7.68%     38.90% |          33      5.51%     44.41% |          59      9.85%     54.26% |          22      3.67%     57.93% |          21      3.51%     61.44% |          19      3.17%     64.61% |          40      6.68%     71.29% |          43      7.18%     78.46% |          18      3.01%     81.47% |          28      4.67%     86.14% |          19      3.17%     89.32% |          38      6.34%     95.66% |          26      4.34%    100.00% (Unspecified)
board.cache_hierarchy.ruby_system.L2Cache_Controller.Unblock::total          599                       (Unspecified)
board.cache_hierarchy.ruby_system.L2Cache_Controller.Exclusive_Unblock |       32836     91.54%     91.54% |         235      0.66%     92.20% |         200      0.56%     92.76% |         201      0.56%     93.32% |         242      0.67%     93.99% |         258      0.72%     94.71% |         207      0.58%     95.29% |         206      0.57%     95.86% |         205      0.57%     96.43% |         183      0.51%     96.94% |         201      0.56%     97.50% |         151      0.42%     97.93% |         202      0.56%     98.49% |         194      0.54%     99.03% |         186      0.52%     99.55% |         162      0.45%    100.00% (Unspecified)
board.cache_hierarchy.ruby_system.L2Cache_Controller.Exclusive_Unblock::total        35869                       (Unspecified)
board.cache_hierarchy.ruby_system.L2Cache_Controller.NP.L1_GET_INSTR |          24      6.27%      6.27% |          23      6.01%     12.27% |          26      6.79%     19.06% |          28      7.31%     26.37% |          26      6.79%     33.16% |          28      7.31%     40.47% |          27      7.05%     47.52% |          23      6.01%     53.52% |          19      4.96%     58.49% |          21      5.48%     63.97% |          20      5.22%     69.19% |          22      5.74%     74.93% |          26      6.79%     81.72% |          23      6.01%     87.73% |          23      6.01%     93.73% |          24      6.27%    100.00% (Unspecified)
board.cache_hierarchy.ruby_system.L2Cache_Controller.NP.L1_GET_INSTR::total          383                       (Unspecified)
board.cache_hierarchy.ruby_system.L2Cache_Controller.NP.L1_GETS |           0      0.00%      0.00% |           2      3.08%      3.08% |           0      0.00%      3.08% |           0      0.00%      3.08% |          16     24.62%     27.69% |           1      1.54%     29.23% |           3      4.62%     33.85% |           0      0.00%     33.85% |           0      0.00%     33.85% |          17     26.15%     60.00% |           2      3.08%     63.08% |           1      1.54%     64.62% |           3      4.62%     69.23% |           0      0.00%     69.23% |           3      4.62%     73.85% |          17     26.15%    100.00% (Unspecified)
board.cache_hierarchy.ruby_system.L2Cache_Controller.NP.L1_GETS::total           65                       (Unspecified)
board.cache_hierarchy.ruby_system.L2Cache_Controller.NP.L1_GETX |          39      4.95%      4.95% |          50      6.35%     11.29% |          57      7.23%     18.53% |          57      7.23%     25.76% |          57      7.23%     32.99% |          74      9.39%     42.39% |          56      7.11%     49.49% |          57      7.23%     56.73% |          57      7.23%     63.96% |          40      5.08%     69.04% |          40      5.08%     74.11% |          25      3.17%     77.28% |          41      5.20%     82.49% |          57      7.23%     89.72% |          47      5.96%     95.69% |          34      4.31%    100.00% (Unspecified)
board.cache_hierarchy.ruby_system.L2Cache_Controller.NP.L1_GETX::total          788                       (Unspecified)
board.cache_hierarchy.ruby_system.L2Cache_Controller.SS.L1_GET_INSTR |         176      6.41%      6.41% |         106      3.86%     10.28% |         117      4.26%     14.54% |         144      5.25%     19.79% |         170      6.20%     25.98% |         199      7.25%     33.24% |         218      7.94%     41.18% |         142      5.17%     46.36% |         179      6.52%     52.88% |         200      7.29%     60.17% |         184      6.71%     66.87% |         168      6.12%     73.00% |         174      6.34%     79.34% |         173      6.30%     85.64% |         197      7.18%     92.82% |         197      7.18%    100.00% (Unspecified)
board.cache_hierarchy.ruby_system.L2Cache_Controller.SS.L1_GET_INSTR::total         2744                       (Unspecified)
board.cache_hierarchy.ruby_system.L2Cache_Controller.SS.L1_GETS |          20      7.78%      7.78% |           2      0.78%      8.56% |          16      6.23%     14.79% |          24      9.34%     24.12% |          17      6.61%     30.74% |           0      0.00%     30.74% |          29     11.28%     42.02% |           2      0.78%     42.80% |           1      0.39%     43.19% |          20      7.78%     50.97% |          37     14.40%     65.37% |           0      0.00%     65.37% |          15      5.84%     71.21% |          14      5.45%     76.65% |          31     12.06%     88.72% |          29     11.28%    100.00% (Unspecified)
board.cache_hierarchy.ruby_system.L2Cache_Controller.SS.L1_GETS::total          257                       (Unspecified)
board.cache_hierarchy.ruby_system.L2Cache_Controller.SS.L1_GETX |           0      0.00%      0.00% |           1     20.00%     20.00% |           0      0.00%     20.00% |           0      0.00%     20.00% |           2     40.00%     60.00% |           0      0.00%     60.00% |           0      0.00%     60.00% |           0      0.00%     60.00% |           0      0.00%     60.00% |           0      0.00%     60.00% |           2     40.00%    100.00% |           0      0.00%    100.00% |           0      0.00%    100.00% |           0      0.00%    100.00% |           0      0.00%    100.00% |           0      0.00%    100.00% (Unspecified)
board.cache_hierarchy.ruby_system.L2Cache_Controller.SS.L1_GETX::total            5                       (Unspecified)
board.cache_hierarchy.ruby_system.L2Cache_Controller.SS.L1_UPGRADE |           1      0.46%      0.46% |          60     27.78%     28.24% |          25     11.57%     39.81% |          12      5.56%     45.37% |          13      6.02%     51.39% |          33     15.28%     66.67% |           6      2.78%     69.44% |           5      2.31%     71.76% |           2      0.93%     72.69% |           2      0.93%     73.61% |          23     10.65%     84.26% |           0      0.00%     84.26% |          12      5.56%     89.81% |           3      1.39%     91.20% |          18      8.33%     99.54% |           1      0.46%    100.00% (Unspecified)
board.cache_hierarchy.ruby_system.L2Cache_Controller.SS.L1_UPGRADE::total          216                       (Unspecified)
board.cache_hierarchy.ruby_system.L2Cache_Controller.M.L1_GET_INSTR |           0      0.00%      0.00% |           0      0.00%      0.00% |           0      0.00%      0.00% |           0      0.00%      0.00% |           0      0.00%      0.00% |           0      0.00%      0.00% |           0      0.00%      0.00% |           0      0.00%      0.00% |           0      0.00%      0.00% |           0      0.00%      0.00% |           0      0.00%      0.00% |           0      0.00%      0.00% |           0      0.00%      0.00% |           0      0.00%      0.00% |           1    100.00%    100.00% |           0      0.00%    100.00% (Unspecified)
board.cache_hierarchy.ruby_system.L2Cache_Controller.M.L1_GET_INSTR::total            1                       (Unspecified)
board.cache_hierarchy.ruby_system.L2Cache_Controller.M.L1_GETS |         110      5.83%      5.83% |         113      5.99%     11.82% |         117      6.20%     18.03% |         130      6.89%     24.92% |         119      6.31%     31.23% |         124      6.57%     37.80% |         121      6.42%     44.22% |         117      6.20%     50.42% |         119      6.31%     56.73% |         113      5.99%     62.73% |         118      6.26%     68.98% |         114      6.04%     75.03% |         120      6.36%     81.39% |         124      6.57%     87.96% |         117      6.20%     94.17% |         110      5.83%    100.00% (Unspecified)
board.cache_hierarchy.ruby_system.L2Cache_Controller.M.L1_GETS::total         1886                       (Unspecified)
board.cache_hierarchy.ruby_system.L2Cache_Controller.M.L1_GETX |           2      4.35%      4.35% |           1      2.17%      6.52% |           1      2.17%      8.70% |           2      4.35%     13.04% |          20     43.48%     56.52% |           0      0.00%     56.52% |           1      2.17%     58.70% |           1      2.17%     60.87% |           1      2.17%     63.04% |           1      2.17%     65.22% |           1      2.17%     67.39% |           1      2.17%     69.57% |          13     28.26%     97.83% |           0      0.00%     97.83% |           1      2.17%    100.00% |           0      0.00%    100.00% (Unspecified)
board.cache_hierarchy.ruby_system.L2Cache_Controller.M.L1_GETX::total           46                       (Unspecified)
board.cache_hierarchy.ruby_system.L2Cache_Controller.MT.L1_GETS |          34      5.68%      5.68% |          94     15.69%     21.37% |          59      9.85%     31.22% |          46      7.68%     38.90% |          33      5.51%     44.41% |          59      9.85%     54.26% |          22      3.67%     57.93% |          21      3.51%     61.44% |          19      3.17%     64.61% |          40      6.68%     71.29% |          43      7.18%     78.46% |          18      3.01%     81.47% |          28      4.67%     86.14% |          19      3.17%     89.32% |          38      6.34%     95.66% |          26      4.34%    100.00% (Unspecified)
board.cache_hierarchy.ruby_system.L2Cache_Controller.MT.L1_GETS::total          599                       (Unspecified)
board.cache_hierarchy.ruby_system.L2Cache_Controller.MT.L1_GETX |       32684     99.46%     99.46% |           8      0.02%     99.48% |           0      0.00%     99.48% |           0      0.00%     99.48% |          15      0.05%     99.53% |          26      0.08%     99.60% |          20      0.06%     99.67% |          26      0.08%     99.74% |          26      0.08%     99.82% |          10      0.03%     99.85% |          15      0.05%     99.90% |          10      0.03%     99.93% |          13      0.04%     99.97% |          10      0.03%    100.00% |           0      0.00%    100.00% |           0      0.00%    100.00% (Unspecified)
board.cache_hierarchy.ruby_system.L2Cache_Controller.MT.L1_GETX::total        32863                       (Unspecified)
board.cache_hierarchy.ruby_system.L2Cache_Controller.MT.L1_PUTX |           8      2.21%      2.21% |          17      4.70%      6.91% |          16      4.42%     11.33% |          31      8.56%     19.89% |          46     12.71%     32.60% |          33      9.12%     41.71% |          30      8.29%     50.00% |          15      4.14%     54.14% |          17      4.70%     58.84% |          14      3.87%     62.71% |          30      8.29%     70.99% |          11      3.04%     74.03% |          30      8.29%     82.32% |          39     10.77%     93.09% |          16      4.42%     97.51% |           9      2.49%    100.00% (Unspecified)
board.cache_hierarchy.ruby_system.L2Cache_Controller.MT.L1_PUTX::total          362                       (Unspecified)
board.cache_hierarchy.ruby_system.L2Cache_Controller.ISS.Mem_Data |           0      0.00%      0.00% |           2      3.08%      3.08% |           0      0.00%      3.08% |           0      0.00%      3.08% |          16     24.62%     27.69% |           1      1.54%     29.23% |           3      4.62%     33.85% |           0      0.00%     33.85% |           0      0.00%     33.85% |          17     26.15%     60.00% |           2      3.08%     63.08% |           1      1.54%     64.62% |           3      4.62%     69.23% |           0      0.00%     69.23% |           3      4.62%     73.85% |          17     26.15%    100.00% (Unspecified)
board.cache_hierarchy.ruby_system.L2Cache_Controller.ISS.Mem_Data::total           65                       (Unspecified)
board.cache_hierarchy.ruby_system.L2Cache_Controller.IS.L1_GET_INSTR |           0      0.00%      0.00% |           0      0.00%      0.00% |           0      0.00%      0.00% |           0      0.00%      0.00% |           0      0.00%      0.00% |           0      0.00%      0.00% |           1     50.00%     50.00% |           0      0.00%     50.00% |           0      0.00%     50.00% |           1     50.00%    100.00% |           0      0.00%    100.00% |           0      0.00%    100.00% |           0      0.00%    100.00% |           0      0.00%    100.00% |           0      0.00%    100.00% |           0      0.00%    100.00% (Unspecified)
board.cache_hierarchy.ruby_system.L2Cache_Controller.IS.L1_GET_INSTR::total            2                       (Unspecified)
board.cache_hierarchy.ruby_system.L2Cache_Controller.IS.Mem_Data |          24      6.27%      6.27% |          23      6.01%     12.27% |          26      6.79%     19.06% |          28      7.31%     26.37% |          26      6.79%     33.16% |          28      7.31%     40.47% |          27      7.05%     47.52% |          23      6.01%     53.52% |          19      4.96%     58.49% |          21      5.48%     63.97% |          20      5.22%     69.19% |          22      5.74%     74.93% |          26      6.79%     81.72% |          23      6.01%     87.73% |          23      6.01%     93.73% |          24      6.27%    100.00% (Unspecified)
board.cache_hierarchy.ruby_system.L2Cache_Controller.IS.Mem_Data::total          383                       (Unspecified)
board.cache_hierarchy.ruby_system.L2Cache_Controller.IM.Mem_Data |          39      4.95%      4.95% |          50      6.35%     11.29% |          57      7.23%     18.53% |          57      7.23%     25.76% |          57      7.23%     32.99% |          74      9.39%     42.39% |          56      7.11%     49.49% |          57      7.23%     56.73% |          57      7.23%     63.96% |          40      5.08%     69.04% |          40      5.08%     74.11% |          25      3.17%     77.28% |          41      5.20%     82.49% |          57      7.23%     89.72% |          47      5.96%     95.69% |          34      4.31%    100.00% (Unspecified)
board.cache_hierarchy.ruby_system.L2Cache_Controller.IM.Mem_Data::total          788                       (Unspecified)
board.cache_hierarchy.ruby_system.L2Cache_Controller.SS_MB.L1_GETS |           0      0.00%      0.00% |           1     33.33%     33.33% |           0      0.00%     33.33% |           0      0.00%     33.33% |           0      0.00%     33.33% |           0      0.00%     33.33% |           1     33.33%     66.67% |           0      0.00%     66.67% |           0      0.00%     66.67% |           0      0.00%     66.67% |           1     33.33%    100.00% |           0      0.00%    100.00% |           0      0.00%    100.00% |           0      0.00%    100.00% |           0      0.00%    100.00% |           0      0.00%    100.00% (Unspecified)
board.cache_hierarchy.ruby_system.L2Cache_Controller.SS_MB.L1_GETS::total            3                       (Unspecified)
board.cache_hierarchy.ruby_system.L2Cache_Controller.SS_MB.L1_UPGRADE |           0      0.00%      0.00% |           2    100.00%    100.00% |           0      0.00%    100.00% |           0      0.00%    100.00% |           0      0.00%    100.00% |           0      0.00%    100.00% |           0      0.00%    100.00% |           0      0.00%    100.00% |           0      0.00%    100.00% |           0      0.00%    100.00% |           0      0.00%    100.00% |           0      0.00%    100.00% |           0      0.00%    100.00% |           0      0.00%    100.00% |           0      0.00%    100.00% |           0      0.00%    100.00% (Unspecified)
board.cache_hierarchy.ruby_system.L2Cache_Controller.SS_MB.L1_UPGRADE::total            2                       (Unspecified)
board.cache_hierarchy.ruby_system.L2Cache_Controller.SS_MB.Exclusive_Unblock |           1      0.45%      0.45% |          61     27.60%     28.05% |          25     11.31%     39.37% |          12      5.43%     44.80% |          15      6.79%     51.58% |          33     14.93%     66.52% |           6      2.71%     69.23% |           5      2.26%     71.49% |           2      0.90%     72.40% |           2      0.90%     73.30% |          25     11.31%     84.62% |           0      0.00%     84.62% |          12      5.43%     90.05% |           3      1.36%     91.40% |          18      8.14%     99.55% |           1      0.45%    100.00% (Unspecified)
board.cache_hierarchy.ruby_system.L2Cache_Controller.SS_MB.Exclusive_Unblock::total          221                       (Unspecified)
board.cache_hierarchy.ruby_system.L2Cache_Controller.MT_MB.L1_GETS |           0      0.00%      0.00% |           0      0.00%      0.00% |           0      0.00%      0.00% |           0      0.00%      0.00% |           0      0.00%      0.00% |           0      0.00%      0.00% |           0      0.00%      0.00% |           0      0.00%      0.00% |           0      0.00%      0.00% |           0      0.00%      0.00% |           1    100.00%    100.00% |           0      0.00%    100.00% |           0      0.00%    100.00% |           0      0.00%    100.00% |           0      0.00%    100.00% |           0      0.00%    100.00% (Unspecified)
board.cache_hierarchy.ruby_system.L2Cache_Controller.MT_MB.L1_GETS::total            1                       (Unspecified)
board.cache_hierarchy.ruby_system.L2Cache_Controller.MT_MB.L1_GETX |      461843    100.00%    100.00% |           0      0.00%    100.00% |           0      0.00%    100.00% |           0      0.00%    100.00% |           0      0.00%    100.00% |           0      0.00%    100.00% |           0      0.00%    100.00% |           0      0.00%    100.00% |           0      0.00%    100.00% |           0      0.00%    100.00% |           0      0.00%    100.00% |           0      0.00%    100.00% |           0      0.00%    100.00% |           0      0.00%    100.00% |           0      0.00%    100.00% |           0      0.00%    100.00% (Unspecified)
board.cache_hierarchy.ruby_system.L2Cache_Controller.MT_MB.L1_GETX::total       461843                       (Unspecified)
board.cache_hierarchy.ruby_system.L2Cache_Controller.MT_MB.Exclusive_Unblock |       32835     92.11%     92.11% |         174      0.49%     92.60% |         175      0.49%     93.09% |         189      0.53%     93.62% |         227      0.64%     94.25% |         225      0.63%     94.89% |         201      0.56%     95.45% |         201      0.56%     96.01% |         203      0.57%     96.58% |         181      0.51%     97.09% |         176      0.49%     97.58% |         151      0.42%     98.01% |         190      0.53%     98.54% |         191      0.54%     99.08% |         168      0.47%     99.55% |         161      0.45%    100.00% (Unspecified)
board.cache_hierarchy.ruby_system.L2Cache_Controller.MT_MB.Exclusive_Unblock::total        35648                       (Unspecified)
board.cache_hierarchy.ruby_system.L2Cache_Controller.MT_IIB.L1_GETS |           0      0.00%      0.00% |           0      0.00%      0.00% |           0      0.00%      0.00% |           0      0.00%      0.00% |           0      0.00%      0.00% |           0      0.00%      0.00% |           1    100.00%    100.00% |           0      0.00%    100.00% |           0      0.00%    100.00% |           0      0.00%    100.00% |           0      0.00%    100.00% |           0      0.00%    100.00% |           0      0.00%    100.00% |           0      0.00%    100.00% |           0      0.00%    100.00% |           0      0.00%    100.00% (Unspecified)
board.cache_hierarchy.ruby_system.L2Cache_Controller.MT_IIB.L1_GETS::total            1                       (Unspecified)
board.cache_hierarchy.ruby_system.L2Cache_Controller.MT_IIB.L1_GETX |           0      0.00%      0.00% |           1    100.00%    100.00% |           0      0.00%    100.00% |           0      0.00%    100.00% |           0      0.00%    100.00% |           0      0.00%    100.00% |           0      0.00%    100.00% |           0      0.00%    100.00% |           0      0.00%    100.00% |           0      0.00%    100.00% |           0      0.00%    100.00% |           0      0.00%    100.00% |           0      0.00%    100.00% |           0      0.00%    100.00% |           0      0.00%    100.00% |           0      0.00%    100.00% (Unspecified)
board.cache_hierarchy.ruby_system.L2Cache_Controller.MT_IIB.L1_GETX::total            1                       (Unspecified)
board.cache_hierarchy.ruby_system.L2Cache_Controller.MT_IIB.WB_Data |          21      4.10%      4.10% |          67     13.09%     17.19% |          57     11.13%     28.32% |          29      5.66%     33.98% |          32      6.25%     40.23% |          58     11.33%     51.56% |          20      3.91%     55.47% |          20      3.91%     59.38% |          19      3.71%     63.09% |          39      7.62%     70.70% |          29      5.66%     76.37% |          18      3.52%     79.88% |          27      5.27%     85.16% |          18      3.52%     88.67% |          35      6.84%     95.51% |          23      4.49%    100.00% (Unspecified)
board.cache_hierarchy.ruby_system.L2Cache_Controller.MT_IIB.WB_Data::total          512                       (Unspecified)
board.cache_hierarchy.ruby_system.L2Cache_Controller.MT_IIB.WB_Data_clean |          12     42.86%     42.86% |           0      0.00%     42.86% |           1      3.57%     46.43% |           2      7.14%     53.57% |           1      3.57%     57.14% |           1      3.57%     60.71% |           1      3.57%     64.29% |           0      0.00%     64.29% |           0      0.00%     64.29% |           1      3.57%     67.86% |           2      7.14%     75.00% |           0      0.00%     75.00% |           1      3.57%     78.57% |           1      3.57%     82.14% |           3     10.71%     92.86% |           2      7.14%    100.00% (Unspecified)
board.cache_hierarchy.ruby_system.L2Cache_Controller.MT_IIB.WB_Data_clean::total           28                       (Unspecified)
board.cache_hierarchy.ruby_system.L2Cache_Controller.MT_IIB.Unblock |           1      1.69%      1.69% |          27     45.76%     47.46% |           1      1.69%     49.15% |          15     25.42%     74.58% |           0      0.00%     74.58% |           0      0.00%     74.58% |           1      1.69%     76.27% |           1      1.69%     77.97% |           0      0.00%     77.97% |           0      0.00%     77.97% |          12     20.34%     98.31% |           0      0.00%     98.31% |           0      0.00%     98.31% |           0      0.00%     98.31% |           0      0.00%     98.31% |           1      1.69%    100.00% (Unspecified)
board.cache_hierarchy.ruby_system.L2Cache_Controller.MT_IIB.Unblock::total           59                       (Unspecified)
board.cache_hierarchy.ruby_system.L2Cache_Controller.MT_IB.WB_Data |           1      2.27%      2.27% |          27     61.36%     63.64% |           1      2.27%     65.91% |           0      0.00%     65.91% |           0      0.00%     65.91% |           0      0.00%     65.91% |           1      2.27%     68.18% |           1      2.27%     70.45% |           0      0.00%     70.45% |           0      0.00%     70.45% |          12     27.27%     97.73% |           0      0.00%     97.73% |           0      0.00%     97.73% |           0      0.00%     97.73% |           0      0.00%     97.73% |           1      2.27%    100.00% (Unspecified)
board.cache_hierarchy.ruby_system.L2Cache_Controller.MT_IB.WB_Data::total           44                       (Unspecified)
board.cache_hierarchy.ruby_system.L2Cache_Controller.MT_IB.WB_Data_clean |           0      0.00%      0.00% |           0      0.00%      0.00% |           0      0.00%      0.00% |          15    100.00%    100.00% |           0      0.00%    100.00% |           0      0.00%    100.00% |           0      0.00%    100.00% |           0      0.00%    100.00% |           0      0.00%    100.00% |           0      0.00%    100.00% |           0      0.00%    100.00% |           0      0.00%    100.00% |           0      0.00%    100.00% |           0      0.00%    100.00% |           0      0.00%    100.00% |           0      0.00%    100.00% (Unspecified)
board.cache_hierarchy.ruby_system.L2Cache_Controller.MT_IB.WB_Data_clean::total           15                       (Unspecified)
board.cache_hierarchy.ruby_system.L2Cache_Controller.MT_SB.Unblock |          33      6.11%      6.11% |          67     12.41%     18.52% |          58     10.74%     29.26% |          31      5.74%     35.00% |          33      6.11%     41.11% |          59     10.93%     52.04% |          21      3.89%     55.93% |          20      3.70%     59.63% |          19      3.52%     63.15% |          40      7.41%     70.56% |          31      5.74%     76.30% |          18      3.33%     79.63% |          28      5.19%     84.81% |          19      3.52%     88.33% |          38      7.04%     95.37% |          25      4.63%    100.00% (Unspecified)
[...]
board.processor.cores9.core.decode.unblockCycles        12487                       # Number of cycles decode is unblocking (Cycle)
board.processor.cores9.core.decode.squashCycles         2191                       # Number of cycles decode is squashing (Cycle)
board.processor.cores9.core.decode.branchResolved        12726                       # Number of times decode resolved a branch (Count)
board.processor.cores9.core.decode.branchMispred          114                       # Number of times decode detected a branch misprediction (Count)
board.processor.cores9.core.decode.decodedInsts       343721                       # Number of instructions handled by decode (Count)
board.processor.cores9.core.decode.squashedInsts          576                       # Number of squashed instructions handled by decode (Count)
board.processor.cores9.core.executeStats0.numInsts       216933                       # Number of executed instructions (Count)
board.processor.cores9.core.executeStats0.numNop            0                       # Number of nop insts executed (Count)
board.processor.cores9.core.executeStats0.numBranches        12976                       # Number of branches executed (Count)
board.processor.cores9.core.executeStats0.numLoadInsts        51990                       # Number of load instructions executed (Count)
board.processor.cores9.core.executeStats0.numStoreInsts        16908                       # Number of stores executed (Count)
board.processor.cores9.core.executeStats0.instRate     0.083489                       # Inst execution rate ((Count/Cycle))
board.processor.cores9.core.executeStats0.numCCRegReads        32868                       # Number of times the CC registers were read (Count)
board.processor.cores9.core.executeStats0.numCCRegWrites        46455                       # Number of times the CC registers were written (Count)
board.processor.cores9.core.executeStats0.numFpRegReads           15                       # Number of times the floating registers were read (Count)
board.processor.cores9.core.executeStats0.numFpRegWrites           10                       # Number of times the floating registers were written (Count)
board.processor.cores9.core.executeStats0.numIntRegReads       229136                       # Number of times the integer registers were read (Count)
board.processor.cores9.core.executeStats0.numIntRegWrites       174097                       # Number of times the integer registers were written (Count)
board.processor.cores9.core.executeStats0.numMemRefs        68898                       # Number of memory refs (Count)
board.processor.cores9.core.executeStats0.numMiscRegReads        98845                       # Number of times the Misc registers were read (Count)
board.processor.cores9.core.executeStats0.numMiscRegWrites            1                       # Number of times the Misc registers were written (Count)
board.processor.cores9.core.executeStats0.numVecAluAccesses            0                       # Number of vector alu accesses (Count)
board.processor.cores9.core.executeStats0.numDiscardedOps            0                       # Number of ops (including micro ops) which were discarded before commit (Count)
board.processor.cores9.core.fetch.predictedBranches        18999                       # Number of branches that fetch has predicted taken (Count)
board.processor.cores9.core.fetch.cycles      2557649                       # Number of cycles fetch has run and was not squashing or blocked (Cycle)
board.processor.cores9.core.fetch.squashCycles         4606                       # Number of cycles fetch has spent squashing (Cycle)
board.processor.cores9.core.fetch.miscStallCycles           35                       # Number of cycles fetch has spent waiting on interrupts, or bad addresses, or out of MSHRs (Cycle)
board.processor.cores9.core.fetch.pendingTrapStallCycles          205                       # Number of stall cycles due to pending traps (Cycle)
board.processor.cores9.core.fetch.cacheLines        31512                       # Number of cache lines fetched (Count)
board.processor.cores9.core.fetch.icacheSquashes          105                       # Number of outstanding Icache misses that were squashed (Count)
board.processor.cores9.core.fetch.nisnDist::samples      2596062                       # Number of instructions fetched each cycle (Total) (Count)
board.processor.cores9.core.fetch.nisnDist::mean     0.158160                       # Number of instructions fetched each cycle (Total) (Count)
board.processor.cores9.core.fetch.nisnDist::stdev     1.045105                       # Number of instructions fetched each cycle (Total) (Count)
board.processor.cores9.core.fetch.nisnDist::underflows            0      0.00%      0.00% # Number of instructions fetched each cycle (Total) (Count)
board.processor.cores9.core.fetch.nisnDist::0      2529131     97.42%     97.42% # Number of instructions fetched each cycle (Total) (Count)
board.processor.cores9.core.fetch.nisnDist::1           59      0.00%     97.42% # Number of instructions fetched each cycle (Total) (Count)
board.processor.cores9.core.fetch.nisnDist::2        10259      0.40%     97.82% # Number of instructions fetched each cycle (Total) (Count)
board.processor.cores9.core.fetch.nisnDist::3           73      0.00%     97.82% # Number of instructions fetched each cycle (Total) (Count)
board.processor.cores9.core.fetch.nisnDist::4        14400      0.55%     98.38% # Number of instructions fetched each cycle (Total) (Count)
board.processor.cores9.core.fetch.nisnDist::5          141      0.01%     98.38% # Number of instructions fetched each cycle (Total) (Count)
board.processor.cores9.core.fetch.nisnDist::6         2181      0.08%     98.47% # Number of instructions fetched each cycle (Total) (Count)
board.processor.cores9.core.fetch.nisnDist::7          138      0.01%     98.47% # Number of instructions fetched each cycle (Total) (Count)
board.processor.cores9.core.fetch.nisnDist::8        39680      1.53%    100.00% # Number of instructions fetched each cycle (Total) (Count)
board.processor.cores9.core.fetch.nisnDist::overflows            0      0.00%    100.00% # Number of instructions fetched each cycle (Total) (Count)
board.processor.cores9.core.fetch.nisnDist::min_value            0                       # Number of instructions fetched each cycle (Total) (Count)
board.processor.cores9.core.fetch.nisnDist::max_value            8                       # Number of instructions fetched each cycle (Total) (Count)
board.processor.cores9.core.fetch.nisnDist::total      2596062                       # Number of instructions fetched each cycle (Total) (Count)
board.processor.cores9.core.fetchStats0.numInsts       233668                       # Number of instructions fetched (thread level) (Count)
board.processor.cores9.core.fetchStats0.numOps            0                       # Number of ops (including micro ops) fetched (thread level) (Count)
board.processor.cores9.core.fetchStats0.fetchRate     0.089930                       # Number of inst fetches per cycle ((Count/Cycle))
board.processor.cores9.core.fetchStats0.numBranches        27682                       # Number of branches fetched (Count)
board.processor.cores9.core.fetchStats0.branchRate     0.010654                       # Number of branch fetches per cycle (Ratio)
board.processor.cores9.core.fetchStats0.icacheStallCycles        35870                       # ICache total stall cycles (Cycle)
board.processor.cores9.core.fetchStats0.numFetchSuspends            0                       # Number of times Execute suspended instruction fetching (Count)
board.processor.cores9.core.iew.idleCycles            0                       # Number of cycles IEW is idle (Cycle)
board.processor.cores9.core.iew.squashCycles         2191                       # Number of cycles IEW is squashing (Cycle)
board.processor.cores9.core.iew.blockCycles      2477244                       # Number of cycles IEW is blocking (Cycle)
board.processor.cores9.core.iew.unblockCycles         4523                       # Number of cycles IEW is unblocking (Cycle)
board.processor.cores9.core.iew.dispatchedInsts       310210                       # Number of instructions dispatched to IQ (Count)
board.processor.cores9.core.iew.dispSquashedInsts           16                       # Number of squashed instructions skipped by dispatch (Count)
board.processor.cores9.core.iew.dispLoadInsts        80890                       # Number of dispatched load instructions (Count)
board.processor.cores9.core.iew.dispStoreInsts        25163                       # Number of dispatched store instructions (Count)
board.processor.cores9.core.iew.dispNonSpecInsts         4116                       # Number of dispatched non-speculative instructions (Count)
board.processor.cores9.core.iew.iqFullEvents          403                       # Number of times the IQ has become full, causing a stall (Count)
board.processor.cores9.core.iew.lsqFullEvents           31                       # Number of times the LSQ has become full, causing a stall (Count)
board.processor.cores9.core.iew.memOrderViolationEvents         2054                       # Number of memory order violations (Count)
board.processor.cores9.core.iew.predictedTakenIncorrect            6                       # Number of branches that were predicted taken incorrectly (Count)
board.processor.cores9.core.iew.predictedNotTakenIncorrect          135                       # Number of branches that were predicted not taken incorrectly (Count)
board.processor.cores9.core.iew.branchMispredicts          141                       # Number of branch mispredicts detected at execute (Count)
board.processor.cores9.core.iew.instsToCommit       216895                       # Cumulative count of insts sent to commit (Count)
board.processor.cores9.core.iew.writebackCount       216754                       # Cumulative count of insts written-back (Count)
board.processor.cores9.core.iew.producerInst       157174                       # Number of instructions producing a value (Count)
board.processor.cores9.core.iew.consumerInst       222330                       # Number of instructions consuming a value (Count)
board.processor.cores9.core.iew.wbRate       0.083420                       # Insts written-back per cycle ((Count/Cycle))
board.processor.cores9.core.iew.wbFanout     0.706940                       # Average fanout of values written-back ((Count/Count))
board.processor.cores9.core.interrupts.clk_domain.clock         5328                       # Clock period in ticks (Tick)
board.processor.cores9.core.lsq0.forwLoads         4275                       # Number of loads that had data forwarded from stores (Count)
board.processor.cores9.core.lsq0.squashedLoads        49599                       # Number of loads squashed (Count)
board.processor.cores9.core.lsq0.ignoredResponses            0                       # Number of memory responses ignored because the instruction is squashed (Count)
board.processor.cores9.core.lsq0.memOrderViolation         2054                       # Number of memory ordering violations (Count)
board.processor.cores9.core.lsq0.squashedStores        12434                       # Number of stores squashed (Count)
board.processor.cores9.core.lsq0.rescheduledLoads            0                       # Number of loads that were rescheduled (Count)
board.processor.cores9.core.lsq0.blockedByCache            0                       # Number of times an access to memory failed due to the cache being blocked (Count)
board.processor.cores9.core.lsq0.loadToUse::samples        31291                       # Distribution of cycle latency between the first time a load is issued and its completion (Unspecified)
board.processor.cores9.core.lsq0.loadToUse::mean    80.822441                       # Distribution of cycle latency between the first time a load is issued and its completion (Unspecified)
board.processor.cores9.core.lsq0.loadToUse::stdev   294.738319                       # Distribution of cycle latency between the first time a load is issued and its completion (Unspecified)
board.processor.cores9.core.lsq0.loadToUse::0-9        29075     92.92%     92.92% # Distribution of cycle latency between the first time a load is issued and its completion (Unspecified)
board.processor.cores9.core.lsq0.loadToUse::10-19            8      0.03%     92.94% # Distribution of cycle latency between the first time a load is issued and its completion (Unspecified)
board.processor.cores9.core.lsq0.loadToUse::20-29            2      0.01%     92.95% # Distribution of cycle latency between the first time a load is issued and its completion (Unspecified)
board.processor.cores9.core.lsq0.loadToUse::50-59          128      0.41%     93.36% # Distribution of cycle latency between the first time a load is issued and its completion (Unspecified)
board.processor.cores9.core.lsq0.loadToUse::60-69           15      0.05%     93.41% # Distribution of cycle latency between the first time a load is issued and its completion (Unspecified)
board.processor.cores9.core.lsq0.loadToUse::80-89           11      0.04%     93.44% # Distribution of cycle latency between the first time a load is issued and its completion (Unspecified)
board.processor.cores9.core.lsq0.loadToUse::150-159            1      0.00%     93.45% # Distribution of cycle latency between the first time a load is issued and its completion (Unspecified)
board.processor.cores9.core.lsq0.loadToUse::180-189            1      0.00%     93.45% # Distribution of cycle latency between the first time a load is issued and its completion (Unspecified)
board.processor.cores9.core.lsq0.loadToUse::270-279            1      0.00%     93.45% # Distribution of cycle latency between the first time a load is issued and its completion (Unspecified)
board.processor.cores9.core.lsq0.loadToUse::280-289            1      0.00%     93.45% # Distribution of cycle latency between the first time a load is issued and its completion (Unspecified)
board.processor.cores9.core.lsq0.loadToUse::overflows         2048      6.55%    100.00% # Distribution of cycle latency between the first time a load is issued and its completion (Unspecified)
board.processor.cores9.core.lsq0.loadToUse::min_value            2                       # Distribution of cycle latency between the first time a load is issued and its completion (Unspecified)
board.processor.cores9.core.lsq0.loadToUse::max_value         1229                       # Distribution of cycle latency between the first time a load is issued and its completion (Unspecified)
board.processor.cores9.core.lsq0.loadToUse::total        31291                       # Distribution of cycle latency between the first time a load is issued and its completion (Unspecified)
board.processor.cores9.core.mmu.dtb.rdAccesses        51990                       # TLB accesses on read requests (Count)
board.processor.cores9.core.mmu.dtb.wrAccesses        16908                       # TLB accesses on write requests (Count)
board.processor.cores9.core.mmu.dtb.rdMisses           57                       # TLB misses on read requests (Count)
board.processor.cores9.core.mmu.dtb.wrMisses           11                       # TLB misses on write requests (Count)
board.processor.cores9.core.mmu.dtb.walker.power_state.pwrStateResidencyTicks::UNDEFINED   1177842312                       # Cumulative time (in ticks) in various power states (Tick)
board.processor.cores9.core.mmu.itb.rdAccesses            0                       # TLB accesses on read requests (Count)
board.processor.cores9.core.mmu.itb.wrAccesses        31549                       # TLB accesses on write requests (Count)
board.processor.cores9.core.mmu.itb.rdMisses            0                       # TLB misses on read requests (Count)
board.processor.cores9.core.mmu.itb.wrMisses           77                       # TLB misses on write requests (Count)
board.processor.cores9.core.mmu.itb.walker.power_state.pwrStateResidencyTicks::UNDEFINED   1177842312                       # Cumulative time (in ticks) in various power states (Tick)
board.processor.cores9.core.power_state.pwrStateResidencyTicks::ON   1177842312                       # Cumulative time (in ticks) in various power states (Tick)
board.processor.cores9.core.rename.squashCycles         2191                       # Number of cycles rename is squashing (Cycle)
board.processor.cores9.core.rename.idleCycles        23775                       # Number of cycles rename is idle (Cycle)
board.processor.cores9.core.rename.blockCycles      2500763                       # Number of cycles rename is blocking (Cycle)
board.processor.cores9.core.rename.serializeStallCycles            0                       # count of cycles rename stalled for serializing inst (Cycle)
board.processor.cores9.core.rename.runCycles        39963                       # Number of cycles rename is running (Cycle)
board.processor.cores9.core.rename.unblockCycles        29370                       # Number of cycles rename is unblocking (Cycle)
board.processor.cores9.core.rename.renamedInsts       327096                       # Number of instructions processed by rename (Count)
board.processor.cores9.core.rename.ROBFullEvents           18                       # Number of times rename has blocked due to ROB full (Count)
board.processor.cores9.core.rename.IQFullEvents        26336                       # Number of times rename has blocked due to IQ full (Count)
board.processor.cores9.core.rename.LQFullEvents           65                       # Number of times rename has blocked due to LQ full (Count)
board.processor.cores9.core.rename.SQFullEvents          772                       # Number of times rename has blocked due to SQ full (Count)
board.processor.cores9.core.rename.renamedOperands       467284                       # Number of destination operands rename has renamed (Count)
board.processor.cores9.core.rename.lookups       968288                       # Number of register rename lookups that rename has made (Count)
board.processor.cores9.core.rename.intLookups       374406                       # Number of integer rename lookups (Count)
board.processor.cores9.core.rename.fpLookups           15                       # Number of floating rename lookups (Count)
board.processor.cores9.core.rename.committedMaps       179978                       # Number of HB maps that are committed (Count)
board.processor.cores9.core.rename.undoneMaps       287306                       # Number of HB maps that are undone due to squashing (Count)
board.processor.cores9.core.rename.serializing            0                       # count of serializing insts renamed (Count)
board.processor.cores9.core.rename.tempSerializing            0                       # count of temporary serializing insts renamed (Count)
board.processor.cores9.core.rename.skidInsts        62420                       # count of insts added to the skid buffer (Count)
board.processor.cores9.core.rob.reads         2878795                       # The number of ROB reads (Count)
board.processor.cores9.core.rob.writes         643017                       # The number of ROB writes (Count)
board.processor.cores9.core.thread_0.numInsts        71588                       # Number of Instructions committed (Count)
board.processor.cores9.core.thread_0.numOps       127035                       # Number of Ops committed (Count)
board.processor.cores9.core.thread_0.numMemRefs            0                       # Number of Memory References (Count)
board.workload.inst.arm                             0                       # number of arm instructions executed (Count)
board.workload.inst.quiesce                         0                       # number of quiesce instructions executed (Count)

---------- End Simulation Statistics   ----------
