
---------- Begin Simulation Statistics ----------
simSeconds                                   0.000881                       # Number of seconds simulated (Second)
simTicks                                    880996122                       # Number of ticks simulated (Tick)
finalTick                                  1139959899                       # Number of ticks from beginning of simulation (restored from checkpoints and never reset) (Tick)
simFreq                                  1000000000000                       # The number of ticks per simulated second ((Tick/Second))
hostSeconds                                     31.43                       # Real time elapsed on the host (Second)
hostTickRate                                 28031753                       # The number of ticks simulated per host second (ticks/s) ((Tick/Second))
hostMemory                                    1631060                       # Number of bytes of host memory used (Byte)
simInsts                                      1505407                       # Number of instructions simulated (Count)
simOps                                        2380117                       # Number of ops (including micro ops) simulated (Count)
hostInstRate                                    47899                       # Simulator instruction rate (inst/s) ((Count/Second))
hostOpRate                                      75731                       # Simulator op (including micro ops) rate (op/s) ((Count/Second))
board.cache_hierarchy.ruby_system.delayHistogram::bucket_size          256                       # delay histogram for all message (Unspecified)
board.cache_hierarchy.ruby_system.delayHistogram::max_bucket         2559                       # delay histogram for all message (Unspecified)
board.cache_hierarchy.ruby_system.delayHistogram::samples       180078                       # delay histogram for all message (Unspecified)
board.cache_hierarchy.ruby_system.delayHistogram::mean   265.851914                       # delay histogram for all message (Unspecified)
board.cache_hierarchy.ruby_system.delayHistogram::stdev   578.206986                       # delay histogram for all message (Unspecified)
board.cache_hierarchy.ruby_system.delayHistogram |      147882     82.12%     82.12% |         231      0.13%     82.25% |         298      0.17%     82.41% |         277      0.15%     82.57% |        3904      2.17%     84.74% |       10690      5.94%     90.67% |       14871      8.26%     98.93% |        1925      1.07%    100.00% |           0      0.00%    100.00% |           0      0.00%    100.00% # delay histogram for all message (Unspecified)
board.cache_hierarchy.ruby_system.delayHistogram::total       180078                       # delay histogram for all message (Unspecified)
board.cache_hierarchy.ruby_system.m_outstandReqHistSeqr::bucket_size            2                       (Unspecified)
board.cache_hierarchy.ruby_system.m_outstandReqHistSeqr::max_bucket           19                       (Unspecified)
board.cache_hierarchy.ruby_system.m_outstandReqHistSeqr::samples      1158404                       (Unspecified)
board.cache_hierarchy.ruby_system.m_outstandReqHistSeqr::mean     1.179168                       (Unspecified)
board.cache_hierarchy.ruby_system.m_outstandReqHistSeqr::gmean     1.128054                       (Unspecified)
board.cache_hierarchy.ruby_system.m_outstandReqHistSeqr::stdev     0.435228                       (Unspecified)
board.cache_hierarchy.ruby_system.m_outstandReqHistSeqr |      962751     83.11%     83.11% |      193198     16.68%     99.79% |        2064      0.18%     99.97% |         176      0.02%     99.98% |          73      0.01%     99.99% |          61      0.01%     99.99% |          41      0.00%    100.00% |          23      0.00%    100.00% |          17      0.00%    100.00% |           0      0.00%    100.00% (Unspecified)
board.cache_hierarchy.ruby_system.m_outstandReqHistSeqr::total      1158404                       (Unspecified)
board.cache_hierarchy.ruby_system.m_latencyHistSeqr::bucket_size          256                       (Unspecified)
board.cache_hierarchy.ruby_system.m_latencyHistSeqr::max_bucket         2559                       (Unspecified)
board.cache_hierarchy.ruby_system.m_latencyHistSeqr::samples      1158699                       (Unspecified)
board.cache_hierarchy.ruby_system.m_latencyHistSeqr::mean    16.559958                       (Unspecified)
board.cache_hierarchy.ruby_system.m_latencyHistSeqr::gmean     1.273603                       (Unspecified)
board.cache_hierarchy.ruby_system.m_latencyHistSeqr::stdev    86.466416                       (Unspecified)
board.cache_hierarchy.ruby_system.m_latencyHistSeqr |     1126511     97.22%     97.22% |       14786      1.28%     98.50% |       17394      1.50%    100.00% |           0      0.00%    100.00% |           5      0.00%    100.00% |           3      0.00%    100.00% |           0      0.00%    100.00% |           0      0.00%    100.00% |           0      0.00%    100.00% |           0      0.00%    100.00% (Unspecified)
board.cache_hierarchy.ruby_system.m_latencyHistSeqr::total      1158699                       (Unspecified)
board.cache_hierarchy.ruby_system.m_hitLatencyHistSeqr::bucket_size           32                       (Unspecified)
board.cache_hierarchy.ruby_system.m_hitLatencyHistSeqr::max_bucket          319                       (Unspecified)
board.cache_hierarchy.ruby_system.m_hitLatencyHistSeqr::samples      1106832                       (Unspecified)
board.cache_hierarchy.ruby_system.m_hitLatencyHistSeqr::mean     1.000765                       (Unspecified)
board.cache_hierarchy.ruby_system.m_hitLatencyHistSeqr::gmean     1.000203                       (Unspecified)
board.cache_hierarchy.ruby_system.m_hitLatencyHistSeqr::stdev     0.279730                       (Unspecified)
board.cache_hierarchy.ruby_system.m_hitLatencyHistSeqr |     1106828    100.00%    100.00% |           1      0.00%    100.00% |           0      0.00%    100.00% |           0      0.00%    100.00% |           1      0.00%    100.00% |           2      0.00%    100.00% |           0      0.00%    100.00% |           0      0.00%    100.00% |           0      0.00%    100.00% |           0      0.00%    100.00% (Unspecified)
board.cache_hierarchy.ruby_system.m_hitLatencyHistSeqr::total      1106832                       (Unspecified)
board.cache_hierarchy.ruby_system.m_missLatencyHistSeqr::bucket_size          256                       (Unspecified)
board.cache_hierarchy.ruby_system.m_missLatencyHistSeqr::max_bucket         2559                       (Unspecified)
board.cache_hierarchy.ruby_system.m_missLatencyHistSeqr::samples        51867                       (Unspecified)
board.cache_hierarchy.ruby_system.m_missLatencyHistSeqr::mean   348.590202                       (Unspecified)
board.cache_hierarchy.ruby_system.m_missLatencyHistSeqr::gmean   221.087800                       (Unspecified)
board.cache_hierarchy.ruby_system.m_missLatencyHistSeqr::stdev   227.181118                       (Unspecified)
board.cache_hierarchy.ruby_system.m_missLatencyHistSeqr |       19679     37.94%     37.94% |       14786     28.51%     66.45% |       17394     33.54%     99.98% |           0      0.00%     99.98% |           5      0.01%     99.99% |           3      0.01%    100.00% |           0      0.00%    100.00% |           0      0.00%    100.00% |           0      0.00%    100.00% |           0      0.00%    100.00% (Unspecified)
board.cache_hierarchy.ruby_system.m_missLatencyHistSeqr::total        51867                       (Unspecified)
board.cache_hierarchy.ruby_system.delayVCHist.vnet_0::bucket_size          256                       # delay histogram for vnet_0 (Unspecified)
board.cache_hierarchy.ruby_system.delayVCHist.vnet_0::max_bucket         2559                       # delay histogram for vnet_0 (Unspecified)
board.cache_hierarchy.ruby_system.delayVCHist.vnet_0::samples        89643                       # delay histogram for vnet_0 (Unspecified)
board.cache_hierarchy.ruby_system.delayVCHist.vnet_0::mean   533.855549                       # delay histogram for vnet_0 (Unspecified)
board.cache_hierarchy.ruby_system.delayVCHist.vnet_0::stdev   727.033738                       # delay histogram for vnet_0 (Unspecified)
board.cache_hierarchy.ruby_system.delayVCHist.vnet_0 |       57447     64.08%     64.08% |         231      0.26%     64.34% |         298      0.33%     64.67% |         277      0.31%     64.98% |        3904      4.36%     69.34% |       10690     11.93%     81.26% |       14871     16.59%     97.85% |        1925      2.15%    100.00% |           0      0.00%    100.00% |           0      0.00%    100.00% # delay histogram for vnet_0 (Unspecified)
board.cache_hierarchy.ruby_system.delayVCHist.vnet_0::total        89643                       # delay histogram for vnet_0 (Unspecified)
board.cache_hierarchy.ruby_system.delayVCHist.vnet_1::bucket_size            4                       # delay histogram for vnet_1 (Unspecified)
board.cache_hierarchy.ruby_system.delayVCHist.vnet_1::max_bucket           39                       # delay histogram for vnet_1 (Unspecified)
board.cache_hierarchy.ruby_system.delayVCHist.vnet_1::samples        55350                       # delay histogram for vnet_1 (Unspecified)
board.cache_hierarchy.ruby_system.delayVCHist.vnet_1::mean     0.319205                       # delay histogram for vnet_1 (Unspecified)
board.cache_hierarchy.ruby_system.delayVCHist.vnet_1::stdev     1.618250                       # delay histogram for vnet_1 (Unspecified)
board.cache_hierarchy.ruby_system.delayVCHist.vnet_1 |       53243     96.19%     96.19% |         141      0.25%     96.45% |        1937      3.50%     99.95% |          17      0.03%     99.98% |          10      0.02%    100.00% |           0      0.00%    100.00% |           2      0.00%    100.00% |           0      0.00%    100.00% |           0      0.00%    100.00% |           0      0.00%    100.00% # delay histogram for vnet_1 (Unspecified)
board.cache_hierarchy.ruby_system.delayVCHist.vnet_1::total        55350                       # delay histogram for vnet_1 (Unspecified)
board.cache_hierarchy.ruby_system.delayVCHist.vnet_2::bucket_size            1                       # delay histogram for vnet_2 (Unspecified)
board.cache_hierarchy.ruby_system.delayVCHist.vnet_2::max_bucket            9                       # delay histogram for vnet_2 (Unspecified)
board.cache_hierarchy.ruby_system.delayVCHist.vnet_2::samples        35085                       # delay histogram for vnet_2 (Unspecified)
board.cache_hierarchy.ruby_system.delayVCHist.vnet_2 |       35085    100.00%    100.00% |           0      0.00%    100.00% |           0      0.00%    100.00% |           0      0.00%    100.00% |           0      0.00%    100.00% |           0      0.00%    100.00% |           0      0.00%    100.00% |           0      0.00%    100.00% |           0      0.00%    100.00% |           0      0.00%    100.00% # delay histogram for vnet_2 (Unspecified)
board.cache_hierarchy.ruby_system.delayVCHist.vnet_2::total        35085                       # delay histogram for vnet_2 (Unspecified)
board.cache_hierarchy.ruby_system.Directory_Controller.Fetch          813      0.00%      0.00% (Unspecified)
board.cache_hierarchy.ruby_system.Directory_Controller.Memory_Data          813      0.00%      0.00% (Unspecified)
board.cache_hierarchy.ruby_system.Directory_Controller.I.Fetch          813      0.00%      0.00% (Unspecified)
board.cache_hierarchy.ruby_system.Directory_Controller.IM.Memory_Data          813      0.00%      0.00% (Unspecified)
board.cache_hierarchy.ruby_system.L1Cache_Controller.Load |        6711      2.79%      2.79% |       29222     12.17%     14.96% |       29170     12.15%     27.11% |       29163     12.14%     39.25% |       29177     12.15%     51.40% |       29178     12.15%     63.54% |       29179     12.15%     75.69% |       29189     12.15%     87.85% |       29191     12.15%    100.00% (Unspecified)
board.cache_hierarchy.ruby_system.L1Cache_Controller.Load::total       240180                       (Unspecified)
board.cache_hierarchy.ruby_system.L1Cache_Controller.Ifetch |       11545      1.72%      1.72% |       82660     12.28%     14.00% |       82667     12.28%     26.28% |       82679     12.28%     38.56% |       82698     12.29%     50.85% |       82685     12.28%     63.13% |       82671     12.28%     75.41% |       82756     12.29%     87.71% |       82748     12.29%    100.00% (Unspecified)
board.cache_hierarchy.ruby_system.L1Cache_Controller.Ifetch::total       673109                       (Unspecified)
board.cache_hierarchy.ruby_system.L1Cache_Controller.Store |       11510      4.69%      4.69% |       29423     11.99%     16.68% |       29128     11.87%     28.55% |       29128     11.87%     40.42% |       29128     11.87%     52.29% |       29128     11.87%     64.16% |       29128     11.87%     76.02% |       29419     11.99%     88.01% |       29419     11.99%    100.00% (Unspecified)
board.cache_hierarchy.ruby_system.L1Cache_Controller.Store::total       245411                       (Unspecified)
board.cache_hierarchy.ruby_system.L1Cache_Controller.Inv |          46     40.00%     40.00% |          10      8.70%     48.70% |           9      7.83%     56.52% |          10      8.70%     65.22% |          10      8.70%     73.91% |          11      9.57%     83.48% |           7      6.09%     89.57% |           6      5.22%     94.78% |           6      5.22%    100.00% (Unspecified)
board.cache_hierarchy.ruby_system.L1Cache_Controller.Inv::total          115                       (Unspecified)
board.cache_hierarchy.ruby_system.L1Cache_Controller.L1_Replacement |         626      4.60%      4.60% |        1638     12.04%     16.64% |        1611     11.84%     28.48% |        1610     11.83%     40.32% |        1611     11.84%     52.16% |        1613     11.86%     64.02% |        1611     11.84%     75.86% |        1643     12.08%     87.94% |        1641     12.06%    100.00% (Unspecified)
board.cache_hierarchy.ruby_system.L1Cache_Controller.L1_Replacement::total        13604                       (Unspecified)
board.cache_hierarchy.ruby_system.L1Cache_Controller.Fwd_GETX |          20      0.06%      0.06% |        4030     12.31%     12.37% |        4107     12.54%     24.91% |        4108     12.54%     37.45% |        4109     12.55%     50.00% |        4109     12.55%     62.54% |        4097     12.51%     75.05% |        4093     12.50%     87.55% |        4077     12.45%    100.00% (Unspecified)
board.cache_hierarchy.ruby_system.L1Cache_Controller.Fwd_GETX::total        32750                       (Unspecified)
board.cache_hierarchy.ruby_system.L1Cache_Controller.Fwd_GETS |         384     17.30%     17.30% |        1769     79.68%     96.98% |          13      0.59%     97.57% |          11      0.50%     98.06% |          11      0.50%     98.56% |          11      0.50%     99.05% |           7      0.32%     99.37% |           8      0.36%     99.73% |           6      0.27%    100.00% (Unspecified)
board.cache_hierarchy.ruby_system.L1Cache_Controller.Fwd_GETS::total         2220                       (Unspecified)
board.cache_hierarchy.ruby_system.L1Cache_Controller.Data |           0      0.00%      0.00% |           0      0.00%      0.00% |           0      0.00%      0.00% |           0      0.00%      0.00% |           0      0.00%      0.00% |           0      0.00%      0.00% |           0      0.00%      0.00% |           1    100.00%    100.00% |           0      0.00%    100.00% (Unspecified)
board.cache_hierarchy.ruby_system.L1Cache_Controller.Data::total            1                       (Unspecified)
board.cache_hierarchy.ruby_system.L1Cache_Controller.Data_Exclusive |          67      3.46%      3.46% |        1769     91.37%     94.83% |          17      0.88%     95.71% |          14      0.72%     96.44% |          14      0.72%     97.16% |          14      0.72%     97.88% |          15      0.77%     98.66% |          13      0.67%     99.33% |          13      0.67%    100.00% (Unspecified)
board.cache_hierarchy.ruby_system.L1Cache_Controller.Data_Exclusive::total         1936                       (Unspecified)
board.cache_hierarchy.ruby_system.L1Cache_Controller.DataS_fromL1 |          23      1.04%      1.04% |         317     14.28%     15.32% |        1773     79.86%     95.18% |          18      0.81%     95.99% |          18      0.81%     96.80% |          21      0.95%     97.75% |          19      0.86%     98.60% |          15      0.68%     99.28% |          16      0.72%    100.00% (Unspecified)
board.cache_hierarchy.ruby_system.L1Cache_Controller.DataS_fromL1::total         2220                       (Unspecified)
board.cache_hierarchy.ruby_system.L1Cache_Controller.Data_all_Acks |         552      1.16%      1.16% |        4268      8.96%     10.12% |        4590      9.64%     19.77% |        6347     13.33%     33.10% |        6348     13.33%     46.43% |        6348     13.33%     59.77% |        6349     13.34%     73.10% |        6410     13.46%     86.57% |        6396     13.43%    100.00% (Unspecified)
board.cache_hierarchy.ruby_system.L1Cache_Controller.Data_all_Acks::total        47608                       (Unspecified)
board.cache_hierarchy.ruby_system.L1Cache_Controller.Ack |           9      7.89%      7.89% |          10      8.77%     16.67% |          14     12.28%     28.95% |          13     11.40%     40.35% |          13     11.40%     51.75% |          12     10.53%     62.28% |          15     13.16%     75.44% |          18     15.79%     91.23% |          10      8.77%    100.00% (Unspecified)
board.cache_hierarchy.ruby_system.L1Cache_Controller.Ack::total          114                       (Unspecified)
board.cache_hierarchy.ruby_system.L1Cache_Controller.Ack_all |           8      7.77%      7.77% |          10      9.71%     17.48% |          13     12.62%     30.10% |          13     12.62%     42.72% |          13     12.62%     55.34% |          12     11.65%     66.99% |          13     12.62%     79.61% |          12     11.65%     91.26% |           9      8.74%    100.00% (Unspecified)
board.cache_hierarchy.ruby_system.L1Cache_Controller.Ack_all::total          103                       (Unspecified)
board.cache_hierarchy.ruby_system.L1Cache_Controller.WB_Ack |         224     66.87%     66.87% |          13      3.88%     70.75% |          14      4.18%     74.93% |          14      4.18%     79.10% |          14      4.18%     83.28% |          14      4.18%     87.46% |          14      4.18%     91.64% |          14      4.18%     95.82% |          14      4.18%    100.00% (Unspecified)
board.cache_hierarchy.ruby_system.L1Cache_Controller.WB_Ack::total          335                       (Unspecified)
board.cache_hierarchy.ruby_system.L1Cache_Controller.NP.Load |          91      0.54%      0.54% |        2089     12.40%     12.94% |        2096     12.44%     25.39% |        2094     12.43%     37.82% |        2095     12.44%     50.26% |        2097     12.45%     62.71% |        2096     12.44%     75.15% |        2093     12.43%     87.58% |        2092     12.42%    100.00% (Unspecified)
board.cache_hierarchy.ruby_system.L1Cache_Controller.NP.Load::total        16843                       (Unspecified)
board.cache_hierarchy.ruby_system.L1Cache_Controller.NP.Ifetch |         329     19.17%     19.17% |         188     10.96%     30.13% |         164      9.56%     39.69% |         163      9.50%     49.18% |         162      9.44%     58.62% |         163      9.50%     68.12% |         164      9.56%     77.68% |         192     11.19%     88.87% |         191     11.13%    100.00% (Unspecified)
board.cache_hierarchy.ruby_system.L1Cache_Controller.NP.Ifetch::total         1716                       (Unspecified)
board.cache_hierarchy.ruby_system.L1Cache_Controller.NP.Store |         204     38.86%     38.86% |          61     11.62%     50.48% |          27      5.14%     55.62% |          28      5.33%     60.95% |          28      5.33%     66.29% |          28      5.33%     71.62% |          27      5.14%     76.76% |          61     11.62%     88.38% |          61     11.62%    100.00% (Unspecified)
board.cache_hierarchy.ruby_system.L1Cache_Controller.NP.Store::total          525                       (Unspecified)
board.cache_hierarchy.ruby_system.L1Cache_Controller.NP.Inv |           5    100.00%    100.00% |           0      0.00%    100.00% |           0      0.00%    100.00% |           0      0.00%    100.00% |           0      0.00%    100.00% |           0      0.00%    100.00% |           0      0.00%    100.00% |           0      0.00%    100.00% |           0      0.00%    100.00% (Unspecified)
board.cache_hierarchy.ruby_system.L1Cache_Controller.NP.Inv::total            5                       (Unspecified)
board.cache_hierarchy.ruby_system.L1Cache_Controller.I.Load |          16     69.57%     69.57% |           0      0.00%     69.57% |           0      0.00%     69.57% |           0      0.00%     69.57% |           0      0.00%     69.57% |           0      0.00%     69.57% |           1      4.35%     73.91% |           3     13.04%     86.96% |           3     13.04%    100.00% (Unspecified)
board.cache_hierarchy.ruby_system.L1Cache_Controller.I.Load::total           23                       (Unspecified)
board.cache_hierarchy.ruby_system.L1Cache_Controller.I.Store |           2      0.01%      0.01% |        4016     12.30%     12.30% |        4093     12.53%     24.84% |        4094     12.54%     37.37% |        4095     12.54%     49.91% |        4095     12.54%     62.45% |        4095     12.54%     74.99% |        4090     12.52%     87.51% |        4078     12.49%    100.00% (Unspecified)
board.cache_hierarchy.ruby_system.L1Cache_Controller.I.Store::total        32658                       (Unspecified)
board.cache_hierarchy.ruby_system.L1Cache_Controller.I.L1_Replacement |          21     91.30%     91.30% |           1      4.35%     95.65% |           0      0.00%     95.65% |           0      0.00%     95.65% |           0      0.00%     95.65% |           1      4.35%    100.00% |           0      0.00%    100.00% |           0      0.00%    100.00% |           0      0.00%    100.00% (Unspecified)
board.cache_hierarchy.ruby_system.L1Cache_Controller.I.L1_Replacement::total           23                       (Unspecified)
board.cache_hierarchy.ruby_system.L1Cache_Controller.S.Load |          88      0.58%      0.58% |         356      2.33%      2.91% |        2111     13.84%     16.75% |        2109     13.83%     30.58% |        2108     13.82%     44.41% |        2105     13.80%     58.21% |        2128     13.95%     72.16% |        2122     13.91%     86.08% |        2123     13.92%    100.00% (Unspecified)
board.cache_hierarchy.ruby_system.L1Cache_Controller.S.Load::total        15250                       (Unspecified)
board.cache_hierarchy.ruby_system.L1Cache_Controller.S.Ifetch |       11215      1.67%      1.67% |       82472     12.28%     13.95% |       82503     12.29%     26.24% |       82516     12.29%     38.53% |       82536     12.29%     50.83% |       82522     12.29%     63.12% |       82507     12.29%     75.41% |       82564     12.30%     87.70% |       82557     12.30%    100.00% (Unspecified)
board.cache_hierarchy.ruby_system.L1Cache_Controller.S.Ifetch::total       671392                       (Unspecified)
board.cache_hierarchy.ruby_system.L1Cache_Controller.S.Store |           8      7.84%      7.84% |          10      9.80%     17.65% |          13     12.75%     30.39% |          13     12.75%     43.14% |          13     12.75%     55.88% |          12     11.76%     67.65% |          13     12.75%     80.39% |          11     10.78%     91.18% |           9      8.82%    100.00% (Unspecified)
board.cache_hierarchy.ruby_system.L1Cache_Controller.S.Store::total          102                       (Unspecified)
board.cache_hierarchy.ruby_system.L1Cache_Controller.S.Inv |          41     37.27%     37.27% |          10      9.09%     46.36% |           9      8.18%     54.55% |          10      9.09%     63.64% |          10      9.09%     72.73% |          11     10.00%     82.73% |           7      6.36%     89.09% |           6      5.45%     94.55% |           6      5.45%    100.00% (Unspecified)
board.cache_hierarchy.ruby_system.L1Cache_Controller.S.Inv::total          110                       (Unspecified)
board.cache_hierarchy.ruby_system.L1Cache_Controller.S.L1_Replacement |         381      2.88%      2.88% |        1624     12.26%     15.14% |        1597     12.06%     27.19% |        1596     12.05%     39.24% |        1597     12.06%     51.30% |        1598     12.06%     63.36% |        1597     12.06%     75.42% |        1629     12.30%     87.72% |        1627     12.28%    100.00% (Unspecified)
board.cache_hierarchy.ruby_system.L1Cache_Controller.S.L1_Replacement::total        13246                       (Unspecified)
board.cache_hierarchy.ruby_system.L1Cache_Controller.E.Load |         940     34.02%     34.02% |        1763     63.81%     97.83% |           8      0.29%     98.12% |           8      0.29%     98.41% |           8      0.29%     98.70% |           8      0.29%     98.99% |           9      0.33%     99.31% |           9      0.33%     99.64% |          10      0.36%    100.00% (Unspecified)
board.cache_hierarchy.ruby_system.L1Cache_Controller.E.Load::total         2763                       (Unspecified)
board.cache_hierarchy.ruby_system.L1Cache_Controller.E.Store |          28     28.87%     28.87% |           8      8.25%     37.11% |           9      9.28%     46.39% |           8      8.25%     54.64% |           8      8.25%     62.89% |           9      9.28%     72.16% |          10     10.31%     82.47% |           8      8.25%     90.72% |           9      9.28%    100.00% (Unspecified)
board.cache_hierarchy.ruby_system.L1Cache_Controller.E.Store::total           97                       (Unspecified)
board.cache_hierarchy.ruby_system.L1Cache_Controller.E.L1_Replacement |           5     38.46%     38.46% |           1      7.69%     46.15% |           1      7.69%     53.85% |           1      7.69%     61.54% |           1      7.69%     69.23% |           1      7.69%     76.92% |           1      7.69%     84.62% |           1      7.69%     92.31% |           1      7.69%    100.00% (Unspecified)
board.cache_hierarchy.ruby_system.L1Cache_Controller.E.L1_Replacement::total           13                       (Unspecified)
board.cache_hierarchy.ruby_system.L1Cache_Controller.E.Fwd_GETS |           8      0.45%      0.45% |        1757     99.10%     99.55% |           3      0.17%     99.72% |           1      0.06%     99.77% |           1      0.06%     99.83% |           1      0.06%     99.89% |           1      0.06%     99.94% |           1      0.06%    100.00% |           0      0.00%    100.00% (Unspecified)
board.cache_hierarchy.ruby_system.L1Cache_Controller.E.Fwd_GETS::total         1773                       (Unspecified)
board.cache_hierarchy.ruby_system.L1Cache_Controller.M.Load |        5576      2.72%      2.72% |       25014     12.18%     14.90% |       24955     12.16%     27.06% |       24952     12.15%     39.21% |       24966     12.16%     51.37% |       24968     12.16%     63.53% |       24945     12.15%     75.68% |       24962     12.16%     87.84% |       24963     12.16%    100.00% (Unspecified)
board.cache_hierarchy.ruby_system.L1Cache_Controller.M.Load::total       205301                       (Unspecified)
board.cache_hierarchy.ruby_system.L1Cache_Controller.M.Store |       11268      5.31%      5.31% |       25328     11.95%     17.26% |       24986     11.78%     29.04% |       24985     11.78%     40.83% |       24984     11.78%     52.61% |       24984     11.78%     64.39% |       24983     11.78%     76.18% |       25249     11.91%     88.09% |       25262     11.91%    100.00% (Unspecified)
board.cache_hierarchy.ruby_system.L1Cache_Controller.M.Store::total       212029                       (Unspecified)
board.cache_hierarchy.ruby_system.L1Cache_Controller.M.L1_Replacement |         219     68.01%     68.01% |          12      3.73%     71.74% |          13      4.04%     75.78% |          13      4.04%     79.81% |          13      4.04%     83.85% |          13      4.04%     87.89% |          13      4.04%     91.93% |          13      4.04%     95.96% |          13      4.04%    100.00% (Unspecified)
board.cache_hierarchy.ruby_system.L1Cache_Controller.M.L1_Replacement::total          322                       (Unspecified)
board.cache_hierarchy.ruby_system.L1Cache_Controller.M.Fwd_GETX |          20      0.06%      0.06% |        4030     12.31%     12.37% |        4107     12.54%     24.91% |        4108     12.54%     37.45% |        4109     12.55%     50.00% |        4109     12.55%     62.54% |        4097     12.51%     75.05% |        4093     12.50%     87.55% |        4077     12.45%    100.00% (Unspecified)
board.cache_hierarchy.ruby_system.L1Cache_Controller.M.Fwd_GETX::total        32750                       (Unspecified)
board.cache_hierarchy.ruby_system.L1Cache_Controller.M.Fwd_GETS |         376     84.12%     84.12% |          12      2.68%     86.80% |          10      2.24%     89.04% |          10      2.24%     91.28% |          10      2.24%     93.51% |          10      2.24%     95.75% |           6      1.34%     97.09% |           7      1.57%     98.66% |           6      1.34%    100.00% (Unspecified)
board.cache_hierarchy.ruby_system.L1Cache_Controller.M.Fwd_GETS::total          447                       (Unspecified)
board.cache_hierarchy.ruby_system.L1Cache_Controller.IS.Data_Exclusive |          67      3.46%      3.46% |        1769     91.37%     94.83% |          17      0.88%     95.71% |          14      0.72%     96.44% |          14      0.72%     97.16% |          14      0.72%     97.88% |          15      0.77%     98.66% |          13      0.67%     99.33% |          13      0.67%    100.00% (Unspecified)
board.cache_hierarchy.ruby_system.L1Cache_Controller.IS.Data_Exclusive::total         1936                       (Unspecified)
board.cache_hierarchy.ruby_system.L1Cache_Controller.IS.DataS_fromL1 |          23      1.04%      1.04% |         317     14.28%     15.32% |        1773     79.86%     95.18% |          18      0.81%     95.99% |          18      0.81%     96.80% |          21      0.95%     97.75% |          19      0.86%     98.60% |          15      0.68%     99.28% |          16      0.72%    100.00% (Unspecified)
board.cache_hierarchy.ruby_system.L1Cache_Controller.IS.DataS_fromL1::total         2220                       (Unspecified)
board.cache_hierarchy.ruby_system.L1Cache_Controller.IS.Data_all_Acks |         346      2.40%      2.40% |         191      1.32%      3.72% |         470      3.26%      6.98% |        2225     15.42%     22.40% |        2225     15.42%     37.83% |        2225     15.42%     53.25% |        2227     15.44%     68.69% |        2260     15.67%     84.35% |        2257     15.65%    100.00% (Unspecified)
board.cache_hierarchy.ruby_system.L1Cache_Controller.IS.Data_all_Acks::total        14426                       (Unspecified)
board.cache_hierarchy.ruby_system.L1Cache_Controller.IM.Data |           0      0.00%      0.00% |           0      0.00%      0.00% |           0      0.00%      0.00% |           0      0.00%      0.00% |           0      0.00%      0.00% |           0      0.00%      0.00% |           0      0.00%      0.00% |           1    100.00%    100.00% |           0      0.00%    100.00% (Unspecified)
board.cache_hierarchy.ruby_system.L1Cache_Controller.IM.Data::total            1                       (Unspecified)
board.cache_hierarchy.ruby_system.L1Cache_Controller.IM.Data_all_Acks |         206      0.62%      0.62% |        4077     12.29%     12.91% |        4120     12.42%     25.32% |        4122     12.42%     37.75% |        4123     12.43%     50.17% |        4123     12.43%     62.60% |        4122     12.42%     75.02% |        4150     12.51%     87.53% |        4139     12.47%    100.00% (Unspecified)
board.cache_hierarchy.ruby_system.L1Cache_Controller.IM.Data_all_Acks::total        33182                       (Unspecified)
board.cache_hierarchy.ruby_system.L1Cache_Controller.SM.Ack |           9      7.89%      7.89% |          10      8.77%     16.67% |          14     12.28%     28.95% |          13     11.40%     40.35% |          13     11.40%     51.75% |          12     10.53%     62.28% |          15     13.16%     75.44% |          18     15.79%     91.23% |          10      8.77%    100.00% (Unspecified)
board.cache_hierarchy.ruby_system.L1Cache_Controller.SM.Ack::total          114                       (Unspecified)
board.cache_hierarchy.ruby_system.L1Cache_Controller.SM.Ack_all |           8      7.77%      7.77% |          10      9.71%     17.48% |          13     12.62%     30.10% |          13     12.62%     42.72% |          13     12.62%     55.34% |          12     11.65%     66.99% |          13     12.62%     79.61% |          12     11.65%     91.26% |           9      8.74%    100.00% (Unspecified)
board.cache_hierarchy.ruby_system.L1Cache_Controller.SM.Ack_all::total          103                       (Unspecified)
board.cache_hierarchy.ruby_system.L1Cache_Controller.M_I.Ifetch |           1    100.00%    100.00% |           0      0.00%    100.00% |           0      0.00%    100.00% |           0      0.00%    100.00% |           0      0.00%    100.00% |           0      0.00%    100.00% |           0      0.00%    100.00% |           0      0.00%    100.00% |           0      0.00%    100.00% (Unspecified)
board.cache_hierarchy.ruby_system.L1Cache_Controller.M_I.Ifetch::total            1                       (Unspecified)
board.cache_hierarchy.ruby_system.L1Cache_Controller.M_I.WB_Ack |         224     66.87%     66.87% |          13      3.88%     70.75% |          14      4.18%     74.93% |          14      4.18%     79.10% |          14      4.18%     83.28% |          14      4.18%     87.46% |          14      4.18%     91.64% |          14      4.18%     95.82% |          14      4.18%    100.00% (Unspecified)
board.cache_hierarchy.ruby_system.L1Cache_Controller.M_I.WB_Ack::total          335                       (Unspecified)
board.cache_hierarchy.ruby_system.L2Cache_Controller.L1_GET_INSTR |         220     12.82%     12.82% |         187     10.90%     23.72% |         183     10.66%     34.38% |         201     11.71%     46.10% |         221     12.88%     58.97% |         229     13.34%     72.32% |         260     15.15%     87.47% |         215     12.53%    100.00% (Unspecified)
board.cache_hierarchy.ruby_system.L2Cache_Controller.L1_GET_INSTR::total         1716                       (Unspecified)
board.cache_hierarchy.ruby_system.L2Cache_Controller.L1_GETS |        2089     12.39%     12.39% |        2143     12.71%     25.09% |        2124     12.59%     37.69% |        2091     12.40%     50.08% |        2109     12.50%     62.59% |        2104     12.47%     75.06% |        2114     12.53%     87.60% |        2092     12.40%    100.00% (Unspecified)
board.cache_hierarchy.ruby_system.L2Cache_Controller.L1_GETS::total        16866                       (Unspecified)
board.cache_hierarchy.ruby_system.L2Cache_Controller.L1_GETX |      234283     99.81%     99.81% |          52      0.02%     99.83% |          57      0.02%     99.85% |          50      0.02%     99.87% |          76      0.03%     99.91% |          93      0.04%     99.95% |          65      0.03%     99.97% |          61      0.03%    100.00% (Unspecified)
board.cache_hierarchy.ruby_system.L2Cache_Controller.L1_GETX::total       234737                       (Unspecified)
board.cache_hierarchy.ruby_system.L2Cache_Controller.L1_UPGRADE |           1      0.98%      0.98% |          30     29.41%     30.39% |          21     20.59%     50.98% |           6      5.88%     56.86% |          13     12.75%     69.61% |          17     16.67%     86.27% |          12     11.76%     98.04% |           2      1.96%    100.00% (Unspecified)
board.cache_hierarchy.ruby_system.L2Cache_Controller.L1_UPGRADE::total          102                       (Unspecified)
board.cache_hierarchy.ruby_system.L2Cache_Controller.L1_PUTX |          39     11.64%     11.64% |          45     13.43%     25.07% |          38     11.34%     36.42% |          34     10.15%     46.57% |          47     14.03%     60.60% |          56     16.72%     77.31% |          40     11.94%     89.25% |          36     10.75%    100.00% (Unspecified)
board.cache_hierarchy.ruby_system.L2Cache_Controller.L1_PUTX::total          335                       (Unspecified)
board.cache_hierarchy.ruby_system.L2Cache_Controller.Mem_Data |          93     11.44%     11.44% |          99     12.18%     23.62% |          94     11.56%     35.18% |          92     11.32%     46.49% |         112     13.78%     60.27% |         116     14.27%     74.54% |         106     13.04%     87.58% |         101     12.42%    100.00% (Unspecified)
board.cache_hierarchy.ruby_system.L2Cache_Controller.Mem_Data::total          813                       (Unspecified)
board.cache_hierarchy.ruby_system.L2Cache_Controller.WB_Data |          46     10.29%     10.29% |          89     19.91%     30.20% |          69     15.44%     45.64% |          47     10.51%     56.15% |          50     11.19%     67.34% |          55     12.30%     79.64% |          48     10.74%     90.38% |          43      9.62%    100.00% (Unspecified)
board.cache_hierarchy.ruby_system.L2Cache_Controller.WB_Data::total          447                       (Unspecified)
board.cache_hierarchy.ruby_system.L2Cache_Controller.WB_Data_clean |         214     12.07%     12.07% |         216     12.18%     24.25% |         222     12.52%     36.77% |         224     12.63%     49.41% |         222     12.52%     61.93% |         231     13.03%     74.96% |         226     12.75%     87.70% |         218     12.30%    100.00% (Unspecified)
board.cache_hierarchy.ruby_system.L2Cache_Controller.WB_Data_clean::total         1773                       (Unspecified)
board.cache_hierarchy.ruby_system.L2Cache_Controller.Unblock |         260     11.71%     11.71% |         305     13.74%     25.45% |         291     13.11%     38.56% |         271     12.21%     50.77% |         272     12.25%     63.02% |         286     12.88%     75.90% |         274     12.34%     88.24% |         261     11.76%    100.00% (Unspecified)
board.cache_hierarchy.ruby_system.L2Cache_Controller.Unblock::total         2220                       (Unspecified)
board.cache_hierarchy.ruby_system.L2Cache_Controller.Exclusive_Unblock |       32965     93.59%     93.59% |         327      0.93%     94.52% |         315      0.89%     95.42% |         292      0.83%     96.25% |         340      0.97%     97.21% |         357      1.01%     98.23% |         322      0.91%     99.14% |         303      0.86%    100.00% (Unspecified)
board.cache_hierarchy.ruby_system.L2Cache_Controller.Exclusive_Unblock::total        35221                       (Unspecified)
board.cache_hierarchy.ruby_system.L2Cache_Controller.NP.L1_GET_INSTR |          44     11.76%     11.76% |          43     11.50%     23.26% |          44     11.76%     35.03% |          49     13.10%     48.13% |          51     13.64%     61.76% |          49     13.10%     74.87% |          49     13.10%     87.97% |          45     12.03%    100.00% (Unspecified)
board.cache_hierarchy.ruby_system.L2Cache_Controller.NP.L1_GET_INSTR::total          374                       (Unspecified)
board.cache_hierarchy.ruby_system.L2Cache_Controller.NP.L1_GETS |           1      2.44%      2.44% |          11     26.83%     29.27% |           2      4.88%     34.15% |           1      2.44%     36.59% |          11     26.83%     63.41% |           1      2.44%     65.85% |           5     12.20%     78.05% |           9     21.95%    100.00% (Unspecified)
board.cache_hierarchy.ruby_system.L2Cache_Controller.NP.L1_GETS::total           41                       (Unspecified)
board.cache_hierarchy.ruby_system.L2Cache_Controller.NP.L1_GETX |          48     12.06%     12.06% |          45     11.31%     23.37% |          48     12.06%     35.43% |          42     10.55%     45.98% |          50     12.56%     58.54% |          66     16.58%     75.13% |          52     13.07%     88.19% |          47     11.81%    100.00% (Unspecified)
board.cache_hierarchy.ruby_system.L2Cache_Controller.NP.L1_GETX::total          398                       (Unspecified)
board.cache_hierarchy.ruby_system.L2Cache_Controller.SS.L1_GET_INSTR |         176     13.14%     13.14% |         143     10.68%     23.82% |         139     10.38%     34.20% |         152     11.35%     45.56% |         170     12.70%     58.25% |         180     13.44%     71.70% |         209     15.61%     87.30% |         170     12.70%    100.00% (Unspecified)
board.cache_hierarchy.ruby_system.L2Cache_Controller.SS.L1_GET_INSTR::total         1339                       (Unspecified)
board.cache_hierarchy.ruby_system.L2Cache_Controller.SS.L1_GETS |        1594     12.54%     12.54% |        1593     12.53%     25.07% |        1596     12.56%     37.63% |        1584     12.46%     50.09% |        1586     12.48%     62.57% |        1571     12.36%     74.93% |        1595     12.55%     87.48% |        1591     12.52%    100.00% (Unspecified)
board.cache_hierarchy.ruby_system.L2Cache_Controller.SS.L1_GETS::total        12710                       (Unspecified)
board.cache_hierarchy.ruby_system.L2Cache_Controller.SS.L1_GETX |           0      0.00%      0.00% |           0      0.00%      0.00% |           1     50.00%     50.00% |           0      0.00%     50.00% |           0      0.00%     50.00% |           0      0.00%     50.00% |           1     50.00%    100.00% |           0      0.00%    100.00% (Unspecified)
board.cache_hierarchy.ruby_system.L2Cache_Controller.SS.L1_GETX::total            2                       (Unspecified)
board.cache_hierarchy.ruby_system.L2Cache_Controller.SS.L1_UPGRADE |           1      0.98%      0.98% |          30     29.41%     30.39% |          21     20.59%     50.98% |           6      5.88%     56.86% |          13     12.75%     69.61% |          17     16.67%     86.27% |          12     11.76%     98.04% |           2      1.96%    100.00% (Unspecified)
board.cache_hierarchy.ruby_system.L2Cache_Controller.SS.L1_UPGRADE::total          102                       (Unspecified)
board.cache_hierarchy.ruby_system.L2Cache_Controller.M.L1_GET_INSTR |           0      0.00%      0.00% |           0      0.00%      0.00% |           0      0.00%      0.00% |           0      0.00%      0.00% |           0      0.00%      0.00% |           0      0.00%      0.00% |           1    100.00%    100.00% |           0      0.00%    100.00% (Unspecified)
board.cache_hierarchy.ruby_system.L2Cache_Controller.M.L1_GET_INSTR::total            1                       (Unspecified)
board.cache_hierarchy.ruby_system.L2Cache_Controller.M.L1_GETS |         234     12.35%     12.35% |         234     12.35%     24.70% |         235     12.40%     37.10% |         235     12.40%     49.50% |         240     12.66%     62.16% |         246     12.98%     75.15% |         240     12.66%     87.81% |         231     12.19%    100.00% (Unspecified)
board.cache_hierarchy.ruby_system.L2Cache_Controller.M.L1_GETS::total         1895                       (Unspecified)
board.cache_hierarchy.ruby_system.L2Cache_Controller.M.L1_GETX |           3      9.09%      9.09% |           2      6.06%     15.15% |           2      6.06%     21.21% |           3      9.09%     30.30% |          11     33.33%     63.64% |           9     27.27%     90.91% |           2      6.06%     96.97% |           1      3.03%    100.00% (Unspecified)
board.cache_hierarchy.ruby_system.L2Cache_Controller.M.L1_GETX::total           33                       (Unspecified)
board.cache_hierarchy.ruby_system.L2Cache_Controller.MT.L1_GETS |         260     11.71%     11.71% |         305     13.74%     25.45% |         291     13.11%     38.56% |         271     12.21%     50.77% |         272     12.25%     63.02% |         286     12.88%     75.90% |         274     12.34%     88.24% |         261     11.76%    100.00% (Unspecified)
board.cache_hierarchy.ruby_system.L2Cache_Controller.MT.L1_GETS::total         2220                       (Unspecified)
board.cache_hierarchy.ruby_system.L2Cache_Controller.MT.L1_GETX |       32678     99.78%     99.78% |           5      0.02%     99.80% |           6      0.02%     99.81% |           5      0.02%     99.83% |          15      0.05%     99.87% |          18      0.05%     99.93% |          10      0.03%     99.96% |          13      0.04%    100.00% (Unspecified)
board.cache_hierarchy.ruby_system.L2Cache_Controller.MT.L1_GETX::total        32750                       (Unspecified)
board.cache_hierarchy.ruby_system.L2Cache_Controller.MT.L1_PUTX |          39     11.64%     11.64% |          45     13.43%     25.07% |          38     11.34%     36.42% |          34     10.15%     46.57% |          47     14.03%     60.60% |          56     16.72%     77.31% |          40     11.94%     89.25% |          36     10.75%    100.00% (Unspecified)
board.cache_hierarchy.ruby_system.L2Cache_Controller.MT.L1_PUTX::total          335                       (Unspecified)
board.cache_hierarchy.ruby_system.L2Cache_Controller.ISS.Mem_Data |           1      2.44%      2.44% |          11     26.83%     29.27% |           2      4.88%     34.15% |           1      2.44%     36.59% |          11     26.83%     63.41% |           1      2.44%     65.85% |           5     12.20%     78.05% |           9     21.95%    100.00% (Unspecified)
board.cache_hierarchy.ruby_system.L2Cache_Controller.ISS.Mem_Data::total           41                       (Unspecified)
board.cache_hierarchy.ruby_system.L2Cache_Controller.IS.L1_GET_INSTR |           0      0.00%      0.00% |           1     50.00%     50.00% |           0      0.00%     50.00% |           0      0.00%     50.00% |           0      0.00%     50.00% |           0      0.00%     50.00% |           1     50.00%    100.00% |           0      0.00%    100.00% (Unspecified)
board.cache_hierarchy.ruby_system.L2Cache_Controller.IS.L1_GET_INSTR::total            2                       (Unspecified)
board.cache_hierarchy.ruby_system.L2Cache_Controller.IS.Mem_Data |          44     11.76%     11.76% |          43     11.50%     23.26% |          44     11.76%     35.03% |          49     13.10%     48.13% |          51     13.64%     61.76% |          49     13.10%     74.87% |          49     13.10%     87.97% |          45     12.03%    100.00% (Unspecified)
board.cache_hierarchy.ruby_system.L2Cache_Controller.IS.Mem_Data::total          374                       (Unspecified)
board.cache_hierarchy.ruby_system.L2Cache_Controller.IM.Mem_Data |          48     12.06%     12.06% |          45     11.31%     23.37% |          48     12.06%     35.43% |          42     10.55%     45.98% |          50     12.56%     58.54% |          66     16.58%     75.13% |          52     13.07%     88.19% |          47     11.81%    100.00% (Unspecified)
board.cache_hierarchy.ruby_system.L2Cache_Controller.IM.Mem_Data::total          398                       (Unspecified)
board.cache_hierarchy.ruby_system.L2Cache_Controller.SS_MB.Exclusive_Unblock |           1      0.96%      0.96% |          30     28.85%     29.81% |          22     21.15%     50.96% |           6      5.77%     56.73% |          13     12.50%     69.23% |          17     16.35%     85.58% |          13     12.50%     98.08% |           2      1.92%    100.00% (Unspecified)
board.cache_hierarchy.ruby_system.L2Cache_Controller.SS_MB.Exclusive_Unblock::total          104                       (Unspecified)
board.cache_hierarchy.ruby_system.L2Cache_Controller.MT_MB.L1_GETX |      201554    100.00%    100.00% |           0      0.00%    100.00% |           0      0.00%    100.00% |           0      0.00%    100.00% |           0      0.00%    100.00% |           0      0.00%    100.00% |           0      0.00%    100.00% |           0      0.00%    100.00% (Unspecified)
board.cache_hierarchy.ruby_system.L2Cache_Controller.MT_MB.L1_GETX::total       201554                       (Unspecified)
board.cache_hierarchy.ruby_system.L2Cache_Controller.MT_MB.Exclusive_Unblock |       32964     93.87%     93.87% |         297      0.85%     94.71% |         293      0.83%     95.55% |         286      0.81%     96.36% |         327      0.93%     97.29% |         340      0.97%     98.26% |         309      0.88%     99.14% |         301      0.86%    100.00% (Unspecified)
board.cache_hierarchy.ruby_system.L2Cache_Controller.MT_MB.Exclusive_Unblock::total        35117                       (Unspecified)
board.cache_hierarchy.ruby_system.L2Cache_Controller.MT_IIB.WB_Data |          45     10.44%     10.44% |          80     18.56%     29.00% |          65     15.08%     44.08% |          47     10.90%     54.99% |          50     11.60%     66.59% |          55     12.76%     79.35% |          47     10.90%     90.26% |          42      9.74%    100.00% (Unspecified)
board.cache_hierarchy.ruby_system.L2Cache_Controller.MT_IIB.WB_Data::total          431                       (Unspecified)
board.cache_hierarchy.ruby_system.L2Cache_Controller.MT_IIB.WB_Data_clean |         214     12.11%     12.11% |         216     12.22%     24.34% |         222     12.56%     36.90% |         218     12.34%     49.24% |         222     12.56%     61.80% |         231     13.07%     74.87% |         226     12.79%     87.66% |         218     12.34%    100.00% (Unspecified)
board.cache_hierarchy.ruby_system.L2Cache_Controller.MT_IIB.WB_Data_clean::total         1767                       (Unspecified)
board.cache_hierarchy.ruby_system.L2Cache_Controller.MT_IIB.Unblock |           1      4.55%      4.55% |           9     40.91%     45.45% |           4     18.18%     63.64% |           6     27.27%     90.91% |           0      0.00%     90.91% |           0      0.00%     90.91% |           1      4.55%     95.45% |           1      4.55%    100.00% (Unspecified)
board.cache_hierarchy.ruby_system.L2Cache_Controller.MT_IIB.Unblock::total           22                       (Unspecified)
board.cache_hierarchy.ruby_system.L2Cache_Controller.MT_IB.WB_Data |           1      6.25%      6.25% |           9     56.25%     62.50% |           4     25.00%     87.50% |           0      0.00%     87.50% |           0      0.00%     87.50% |           0      0.00%     87.50% |           1      6.25%     93.75% |           1      6.25%    100.00% (Unspecified)
board.cache_hierarchy.ruby_system.L2Cache_Controller.MT_IB.WB_Data::total           16                       (Unspecified)
board.cache_hierarchy.ruby_system.L2Cache_Controller.MT_IB.WB_Data_clean |           0      0.00%      0.00% |           0      0.00%      0.00% |           0      0.00%      0.00% |           6    100.00%    100.00% |           0      0.00%    100.00% |           0      0.00%    100.00% |           0      0.00%    100.00% |           0      0.00%    100.00% (Unspecified)
board.cache_hierarchy.ruby_system.L2Cache_Controller.MT_IB.WB_Data_clean::total            6                       (Unspecified)
board.cache_hierarchy.ruby_system.L2Cache_Controller.MT_SB.Unblock |         259     11.78%     11.78% |         296     13.47%     25.25% |         287     13.06%     38.31% |         265     12.06%     50.36% |         272     12.37%     62.74% |         286     13.01%     75.75% |         273     12.42%     88.17% |         260     11.83%    100.00% (Unspecified)
board.cache_hierarchy.ruby_system.L2Cache_Controller.MT_SB.Unblock::total         2198                       (Unspecified)
board.cache_hierarchy.ruby_system.RequestType.LD.latency_hist_seqr::bucket_size           32                       (Unspecified)
board.cache_hierarchy.ruby_system.RequestType.LD.latency_hist_seqr::max_bucket          319                       (Unspecified)
board.cache_hierarchy.ruby_system.RequestType.LD.latency_hist_seqr::samples       240180                       (Unspecified)
board.cache_hierarchy.ruby_system.RequestType.LD.latency_hist_seqr::mean     4.804680                       (Unspecified)
board.cache_hierarchy.ruby_system.RequestType.LD.latency_hist_seqr::gmean     1.317164                       (Unspecified)
board.cache_hierarchy.ruby_system.RequestType.LD.latency_hist_seqr::stdev    14.698478                       (Unspecified)
board.cache_hierarchy.ruby_system.RequestType.LD.latency_hist_seqr |      225157     93.75%     93.75% |       13076      5.44%     99.19% |        1906      0.79%     99.98% |           0      0.00%     99.98% |           1      0.00%     99.98% |           4      0.00%     99.99% |          18      0.01%     99.99% |          12      0.00%    100.00% |           6      0.00%    100.00% |           0      0.00%    100.00% (Unspecified)
board.cache_hierarchy.ruby_system.RequestType.LD.latency_hist_seqr::total       240180                       (Unspecified)
board.cache_hierarchy.ruby_system.RequestType.LD.hit_latency_hist_seqr::bucket_size            1                       (Unspecified)
board.cache_hierarchy.ruby_system.RequestType.LD.hit_latency_hist_seqr::max_bucket            9                       (Unspecified)
board.cache_hierarchy.ruby_system.RequestType.LD.hit_latency_hist_seqr::samples       223314                       (Unspecified)
board.cache_hierarchy.ruby_system.RequestType.LD.hit_latency_hist_seqr::mean     1.000036                       (Unspecified)
board.cache_hierarchy.ruby_system.RequestType.LD.hit_latency_hist_seqr::gmean     1.000025                       (Unspecified)
board.cache_hierarchy.ruby_system.RequestType.LD.hit_latency_hist_seqr::stdev     0.005985                       (Unspecified)
board.cache_hierarchy.ruby_system.RequestType.LD.hit_latency_hist_seqr |           0      0.00%      0.00% |      223306    100.00%    100.00% |           8      0.00%    100.00% |           0      0.00%    100.00% |           0      0.00%    100.00% |           0      0.00%    100.00% |           0      0.00%    100.00% |           0      0.00%    100.00% |           0      0.00%    100.00% |           0      0.00%    100.00% (Unspecified)
board.cache_hierarchy.ruby_system.RequestType.LD.hit_latency_hist_seqr::total       223314                       (Unspecified)
board.cache_hierarchy.ruby_system.RequestType.LD.miss_latency_hist_seqr::bucket_size           32                       (Unspecified)
board.cache_hierarchy.ruby_system.RequestType.LD.miss_latency_hist_seqr::max_bucket          319                       (Unspecified)
board.cache_hierarchy.ruby_system.RequestType.LD.miss_latency_hist_seqr::samples        16866                       (Unspecified)
board.cache_hierarchy.ruby_system.RequestType.LD.miss_latency_hist_seqr::mean    55.180007                       (Unspecified)
board.cache_hierarchy.ruby_system.RequestType.LD.miss_latency_hist_seqr::gmean    50.534504                       (Unspecified)
board.cache_hierarchy.ruby_system.RequestType.LD.miss_latency_hist_seqr::stdev    18.634976                       (Unspecified)
board.cache_hierarchy.ruby_system.RequestType.LD.miss_latency_hist_seqr |        1843     10.93%     10.93% |       13076     77.53%     88.46% |        1906     11.30%     99.76% |           0      0.00%     99.76% |           1      0.01%     99.76% |           4      0.02%     99.79% |          18      0.11%     99.89% |          12      0.07%     99.96% |           6      0.04%    100.00% |           0      0.00%    100.00% (Unspecified)
board.cache_hierarchy.ruby_system.RequestType.LD.miss_latency_hist_seqr::total        16866                       (Unspecified)
board.cache_hierarchy.ruby_system.RequestType.ST.latency_hist_seqr::bucket_size          256                       (Unspecified)
board.cache_hierarchy.ruby_system.RequestType.ST.latency_hist_seqr::max_bucket         2559                       (Unspecified)
board.cache_hierarchy.ruby_system.RequestType.ST.latency_hist_seqr::samples       178892                       (Unspecified)
board.cache_hierarchy.ruby_system.RequestType.ST.latency_hist_seqr::mean     1.502633                       (Unspecified)
board.cache_hierarchy.ruby_system.RequestType.ST.latency_hist_seqr::gmean     1.016212                       (Unspecified)
board.cache_hierarchy.ruby_system.RequestType.ST.latency_hist_seqr::stdev    10.995035                       (Unspecified)
board.cache_hierarchy.ruby_system.RequestType.ST.latency_hist_seqr |      178880     99.99%     99.99% |           8      0.00%    100.00% |           0      0.00%    100.00% |           0      0.00%    100.00% |           2      0.00%    100.00% |           2      0.00%    100.00% |           0      0.00%    100.00% |           0      0.00%    100.00% |           0      0.00%    100.00% |           0      0.00%    100.00% (Unspecified)
board.cache_hierarchy.ruby_system.RequestType.ST.latency_hist_seqr::total       178892                       (Unspecified)
board.cache_hierarchy.ruby_system.RequestType.ST.hit_latency_hist_seqr::bucket_size           32                       (Unspecified)
board.cache_hierarchy.ruby_system.RequestType.ST.hit_latency_hist_seqr::max_bucket          319                       (Unspecified)
board.cache_hierarchy.ruby_system.RequestType.ST.hit_latency_hist_seqr::samples       178356                       (Unspecified)
board.cache_hierarchy.ruby_system.RequestType.ST.hit_latency_hist_seqr::mean     1.004631                       (Unspecified)
board.cache_hierarchy.ruby_system.RequestType.ST.hit_latency_hist_seqr::gmean     1.001178                       (Unspecified)
board.cache_hierarchy.ruby_system.RequestType.ST.hit_latency_hist_seqr::stdev     0.696749                       (Unspecified)
board.cache_hierarchy.ruby_system.RequestType.ST.hit_latency_hist_seqr |      178352    100.00%    100.00% |           1      0.00%    100.00% |           0      0.00%    100.00% |           0      0.00%    100.00% |           1      0.00%    100.00% |           2      0.00%    100.00% |           0      0.00%    100.00% |           0      0.00%    100.00% |           0      0.00%    100.00% |           0      0.00%    100.00% (Unspecified)
board.cache_hierarchy.ruby_system.RequestType.ST.hit_latency_hist_seqr::total       178356                       (Unspecified)
board.cache_hierarchy.ruby_system.RequestType.ST.miss_latency_hist_seqr::bucket_size          256                       (Unspecified)
board.cache_hierarchy.ruby_system.RequestType.ST.miss_latency_hist_seqr::max_bucket         2559                       (Unspecified)
board.cache_hierarchy.ruby_system.RequestType.ST.miss_latency_hist_seqr::samples          536                       (Unspecified)
board.cache_hierarchy.ruby_system.RequestType.ST.miss_latency_hist_seqr::mean   167.214552                       (Unspecified)
board.cache_hierarchy.ruby_system.RequestType.ST.miss_latency_hist_seqr::gmean   144.873463                       (Unspecified)
board.cache_hierarchy.ruby_system.RequestType.ST.miss_latency_hist_seqr::stdev   112.546251                       (Unspecified)
board.cache_hierarchy.ruby_system.RequestType.ST.miss_latency_hist_seqr |         524     97.76%     97.76% |           8      1.49%     99.25% |           0      0.00%     99.25% |           0      0.00%     99.25% |           2      0.37%     99.63% |           2      0.37%    100.00% |           0      0.00%    100.00% |           0      0.00%    100.00% |           0      0.00%    100.00% |           0      0.00%    100.00% (Unspecified)
board.cache_hierarchy.ruby_system.RequestType.ST.miss_latency_hist_seqr::total          536                       (Unspecified)
board.cache_hierarchy.ruby_system.RequestType.IFETCH.latency_hist_seqr::bucket_size          256                       (Unspecified)
board.cache_hierarchy.ruby_system.RequestType.IFETCH.latency_hist_seqr::max_bucket         2559                       (Unspecified)
board.cache_hierarchy.ruby_system.RequestType.IFETCH.latency_hist_seqr::samples       673108                       (Unspecified)
board.cache_hierarchy.ruby_system.RequestType.IFETCH.latency_hist_seqr::mean     1.211915                       (Unspecified)
board.cache_hierarchy.ruby_system.RequestType.IFETCH.latency_hist_seqr::gmean     1.010644                       (Unspecified)
board.cache_hierarchy.ruby_system.RequestType.IFETCH.latency_hist_seqr::stdev     5.938321                       (Unspecified)
board.cache_hierarchy.ruby_system.RequestType.IFETCH.latency_hist_seqr |      673095    100.00%    100.00% |           9      0.00%    100.00% |           0      0.00%    100.00% |           0      0.00%    100.00% |           3      0.00%    100.00% |           1      0.00%    100.00% |           0      0.00%    100.00% |           0      0.00%    100.00% |           0      0.00%    100.00% |           0      0.00%    100.00% (Unspecified)
board.cache_hierarchy.ruby_system.RequestType.IFETCH.latency_hist_seqr::total       673108                       (Unspecified)
board.cache_hierarchy.ruby_system.RequestType.IFETCH.hit_latency_hist_seqr::bucket_size            1                       (Unspecified)
board.cache_hierarchy.ruby_system.RequestType.IFETCH.hit_latency_hist_seqr::max_bucket            9                       (Unspecified)
board.cache_hierarchy.ruby_system.RequestType.IFETCH.hit_latency_hist_seqr::samples       671392                       (Unspecified)
board.cache_hierarchy.ruby_system.RequestType.IFETCH.hit_latency_hist_seqr::mean            1                       (Unspecified)
board.cache_hierarchy.ruby_system.RequestType.IFETCH.hit_latency_hist_seqr::gmean            1                       (Unspecified)
board.cache_hierarchy.ruby_system.RequestType.IFETCH.hit_latency_hist_seqr |           0      0.00%      0.00% |      671392    100.00%    100.00% |           0      0.00%    100.00% |           0      0.00%    100.00% |           0      0.00%    100.00% |           0      0.00%    100.00% |           0      0.00%    100.00% |           0      0.00%    100.00% |           0      0.00%    100.00% |           0      0.00%    100.00% (Unspecified)
board.cache_hierarchy.ruby_system.RequestType.IFETCH.hit_latency_hist_seqr::total       671392                       (Unspecified)
board.cache_hierarchy.ruby_system.RequestType.IFETCH.miss_latency_hist_seqr::bucket_size          256                       (Unspecified)
board.cache_hierarchy.ruby_system.RequestType.IFETCH.miss_latency_hist_seqr::max_bucket         2559                       (Unspecified)
board.cache_hierarchy.ruby_system.RequestType.IFETCH.miss_latency_hist_seqr::samples         1716                       (Unspecified)
board.cache_hierarchy.ruby_system.RequestType.IFETCH.miss_latency_hist_seqr::mean    84.124709                       (Unspecified)
board.cache_hierarchy.ruby_system.RequestType.IFETCH.miss_latency_hist_seqr::gmean    63.636689                       (Unspecified)
board.cache_hierarchy.ruby_system.RequestType.IFETCH.miss_latency_hist_seqr::stdev    83.332092                       (Unspecified)
board.cache_hierarchy.ruby_system.RequestType.IFETCH.miss_latency_hist_seqr |        1703     99.24%     99.24% |           9      0.52%     99.77% |           0      0.00%     99.77% |           0      0.00%     99.77% |           3      0.17%     99.94% |           1      0.06%    100.00% |           0      0.00%    100.00% |           0      0.00%    100.00% |           0      0.00%    100.00% |           0      0.00%    100.00% (Unspecified)
board.cache_hierarchy.ruby_system.RequestType.IFETCH.miss_latency_hist_seqr::total         1716                       (Unspecified)
board.cache_hierarchy.ruby_system.RequestType.RMW_Read.latency_hist_seqr::bucket_size           32                       (Unspecified)
board.cache_hierarchy.ruby_system.RequestType.RMW_Read.latency_hist_seqr::max_bucket          319                       (Unspecified)
board.cache_hierarchy.ruby_system.RequestType.RMW_Read.latency_hist_seqr::samples          215                       (Unspecified)
board.cache_hierarchy.ruby_system.RequestType.RMW_Read.latency_hist_seqr::mean     9.702326                       (Unspecified)
board.cache_hierarchy.ruby_system.RequestType.RMW_Read.latency_hist_seqr::gmean     1.472484                       (Unspecified)
board.cache_hierarchy.ruby_system.RequestType.RMW_Read.latency_hist_seqr::stdev    34.655106                       (Unspecified)
board.cache_hierarchy.ruby_system.RequestType.RMW_Read.latency_hist_seqr |         199     92.56%     92.56% |           1      0.47%     93.02% |          10      4.65%     97.67% |           0      0.00%     97.67% |           0      0.00%     97.67% |           2      0.93%     98.60% |           2      0.93%     99.53% |           1      0.47%    100.00% |           0      0.00%    100.00% |           0      0.00%    100.00% (Unspecified)
board.cache_hierarchy.ruby_system.RequestType.RMW_Read.latency_hist_seqr::total          215                       (Unspecified)
board.cache_hierarchy.ruby_system.RequestType.RMW_Read.hit_latency_hist_seqr::bucket_size            1                       (Unspecified)
board.cache_hierarchy.ruby_system.RequestType.RMW_Read.hit_latency_hist_seqr::max_bucket            9                       (Unspecified)
board.cache_hierarchy.ruby_system.RequestType.RMW_Read.hit_latency_hist_seqr::samples          199                       (Unspecified)
board.cache_hierarchy.ruby_system.RequestType.RMW_Read.hit_latency_hist_seqr::mean     1.065327                       (Unspecified)
board.cache_hierarchy.ruby_system.RequestType.RMW_Read.hit_latency_hist_seqr::gmean     1.046322                       (Unspecified)
board.cache_hierarchy.ruby_system.RequestType.RMW_Read.hit_latency_hist_seqr::stdev     0.247725                       (Unspecified)
board.cache_hierarchy.ruby_system.RequestType.RMW_Read.hit_latency_hist_seqr |           0      0.00%      0.00% |         186     93.47%     93.47% |          13      6.53%    100.00% |           0      0.00%    100.00% |           0      0.00%    100.00% |           0      0.00%    100.00% |           0      0.00%    100.00% |           0      0.00%    100.00% |           0      0.00%    100.00% |           0      0.00%    100.00% (Unspecified)
board.cache_hierarchy.ruby_system.RequestType.RMW_Read.hit_latency_hist_seqr::total          199                       (Unspecified)
board.cache_hierarchy.ruby_system.RequestType.RMW_Read.miss_latency_hist_seqr::bucket_size           32                       (Unspecified)
board.cache_hierarchy.ruby_system.RequestType.RMW_Read.miss_latency_hist_seqr::max_bucket          319                       (Unspecified)
board.cache_hierarchy.ruby_system.RequestType.RMW_Read.miss_latency_hist_seqr::samples           16                       (Unspecified)
board.cache_hierarchy.ruby_system.RequestType.RMW_Read.miss_latency_hist_seqr::mean   117.125000                       (Unspecified)
board.cache_hierarchy.ruby_system.RequestType.RMW_Read.miss_latency_hist_seqr::gmean   103.179366                       (Unspecified)
board.cache_hierarchy.ruby_system.RequestType.RMW_Read.miss_latency_hist_seqr::stdev    61.923474                       (Unspecified)
board.cache_hierarchy.ruby_system.RequestType.RMW_Read.miss_latency_hist_seqr |           0      0.00%      0.00% |           1      6.25%      6.25% |          10     62.50%     68.75% |           0      0.00%     68.75% |           0      0.00%     68.75% |           2     12.50%     81.25% |           2     12.50%     93.75% |           1      6.25%    100.00% |           0      0.00%    100.00% |           0      0.00%    100.00% (Unspecified)
board.cache_hierarchy.ruby_system.RequestType.RMW_Read.miss_latency_hist_seqr::total           16                       (Unspecified)
board.cache_hierarchy.ruby_system.RequestType.Locked_RMW_Read.latency_hist_seqr::bucket_size           64                       (Unspecified)
board.cache_hierarchy.ruby_system.RequestType.Locked_RMW_Read.latency_hist_seqr::max_bucket          639                       (Unspecified)
board.cache_hierarchy.ruby_system.RequestType.Locked_RMW_Read.latency_hist_seqr::samples        33152                       (Unspecified)
board.cache_hierarchy.ruby_system.RequestType.Locked_RMW_Read.latency_hist_seqr::mean   510.202160                       (Unspecified)
board.cache_hierarchy.ruby_system.RequestType.Locked_RMW_Read.latency_hist_seqr::gmean   470.057722                       (Unspecified)
board.cache_hierarchy.ruby_system.RequestType.Locked_RMW_Read.latency_hist_seqr::stdev    86.233472                       (Unspecified)
board.cache_hierarchy.ruby_system.RequestType.Locked_RMW_Read.latency_hist_seqr |         460      1.39%      1.39% |         243      0.73%      2.12% |         129      0.39%      2.51% |         163      0.49%      3.00% |         185      0.56%      3.56% |         289      0.87%      4.43% |         288      0.87%      5.30% |       14001     42.23%     47.53% |       17394     52.47%    100.00% |           0      0.00%    100.00% (Unspecified)
board.cache_hierarchy.ruby_system.RequestType.Locked_RMW_Read.latency_hist_seqr::total        33152                       (Unspecified)
board.cache_hierarchy.ruby_system.RequestType.Locked_RMW_Read.hit_latency_hist_seqr::bucket_size            1                       (Unspecified)
board.cache_hierarchy.ruby_system.RequestType.Locked_RMW_Read.hit_latency_hist_seqr::max_bucket            9                       (Unspecified)
board.cache_hierarchy.ruby_system.RequestType.Locked_RMW_Read.hit_latency_hist_seqr::samples          419                       (Unspecified)
board.cache_hierarchy.ruby_system.RequestType.Locked_RMW_Read.hit_latency_hist_seqr::mean            1                       (Unspecified)
board.cache_hierarchy.ruby_system.RequestType.Locked_RMW_Read.hit_latency_hist_seqr::gmean            1                       (Unspecified)
board.cache_hierarchy.ruby_system.RequestType.Locked_RMW_Read.hit_latency_hist_seqr |           0      0.00%      0.00% |         419    100.00%    100.00% |           0      0.00%    100.00% |           0      0.00%    100.00% |           0      0.00%    100.00% |           0      0.00%    100.00% |           0      0.00%    100.00% |           0      0.00%    100.00% |           0      0.00%    100.00% |           0      0.00%    100.00% (Unspecified)
board.cache_hierarchy.ruby_system.RequestType.Locked_RMW_Read.hit_latency_hist_seqr::total          419                       (Unspecified)
board.cache_hierarchy.ruby_system.RequestType.Locked_RMW_Read.miss_latency_hist_seqr::bucket_size           64                       (Unspecified)
board.cache_hierarchy.ruby_system.RequestType.Locked_RMW_Read.miss_latency_hist_seqr::max_bucket          639                       (Unspecified)
board.cache_hierarchy.ruby_system.RequestType.Locked_RMW_Read.miss_latency_hist_seqr::samples        32733                       (Unspecified)
board.cache_hierarchy.ruby_system.RequestType.Locked_RMW_Read.miss_latency_hist_seqr::mean   516.720221                       (Unspecified)
board.cache_hierarchy.ruby_system.RequestType.Locked_RMW_Read.miss_latency_hist_seqr::gmean   508.576353                       (Unspecified)
board.cache_hierarchy.ruby_system.RequestType.Locked_RMW_Read.miss_latency_hist_seqr::stdev    64.574015                       (Unspecified)
board.cache_hierarchy.ruby_system.RequestType.Locked_RMW_Read.miss_latency_hist_seqr |          41      0.13%      0.13% |         243      0.74%      0.87% |         129      0.39%      1.26% |         163      0.50%      1.76% |         185      0.57%      2.32% |         289      0.88%      3.21% |         288      0.88%      4.09% |       14001     42.77%     46.86% |       17394     53.14%    100.00% |           0      0.00%    100.00% (Unspecified)
board.cache_hierarchy.ruby_system.RequestType.Locked_RMW_Read.miss_latency_hist_seqr::total        32733                       (Unspecified)
board.cache_hierarchy.ruby_system.RequestType.Locked_RMW_Write.latency_hist_seqr::bucket_size            1                       (Unspecified)
board.cache_hierarchy.ruby_system.RequestType.Locked_RMW_Write.latency_hist_seqr::max_bucket            9                       (Unspecified)
board.cache_hierarchy.ruby_system.RequestType.Locked_RMW_Write.latency_hist_seqr::samples        33152                       (Unspecified)
board.cache_hierarchy.ruby_system.RequestType.Locked_RMW_Write.latency_hist_seqr::mean            1                       (Unspecified)
board.cache_hierarchy.ruby_system.RequestType.Locked_RMW_Write.latency_hist_seqr::gmean            1                       (Unspecified)
board.cache_hierarchy.ruby_system.RequestType.Locked_RMW_Write.latency_hist_seqr |           0      0.00%      0.00% |       33152    100.00%    100.00% |           0      0.00%    100.00% |           0      0.00%    100.00% |           0      0.00%    100.00% |           0      0.00%    100.00% |           0      0.00%    100.00% |           0      0.00%    100.00% |           0      0.00%    100.00% |           0      0.00%    100.00% (Unspecified)
board.cache_hierarchy.ruby_system.RequestType.Locked_RMW_Write.latency_hist_seqr::total        33152                       (Unspecified)
board.cache_hierarchy.ruby_system.RequestType.Locked_RMW_Write.hit_latency_hist_seqr::bucket_size            1                       (Unspecified)
board.cache_hierarchy.ruby_system.RequestType.Locked_RMW_Write.hit_latency_hist_seqr::max_bucket            9                       (Unspecified)
board.cache_hierarchy.ruby_system.RequestType.Locked_RMW_Write.hit_latency_hist_seqr::samples        33152                       (Unspecified)
board.cache_hierarchy.ruby_system.RequestType.Locked_RMW_Write.hit_latency_hist_seqr::mean            1                       (Unspecified)
board.cache_hierarchy.ruby_system.RequestType.Locked_RMW_Write.hit_latency_hist_seqr::gmean            1                       (Unspecified)
board.cache_hierarchy.ruby_system.RequestType.Locked_RMW_Write.hit_latency_hist_seqr |           0      0.00%      0.00% |       33152    100.00%    100.00% |           0      0.00%    100.00% |           0      0.00%    100.00% |           0      0.00%    100.00% |           0      0.00%    100.00% |           0      0.00%    100.00% |           0      0.00%    100.00% |           0      0.00%    100.00% |           0      0.00%    100.00% (Unspecified)
board.cache_hierarchy.ruby_system.RequestType.Locked_RMW_Write.hit_latency_hist_seqr::total        33152                       (Unspecified)
board.cache_hierarchy.ruby_system.directory_controllers.power_state.pwrStateResidencyTicks::UNDEFINED   1139959899                       # Cumulative time (in ticks) in various power states (Tick)
board.cache_hierarchy.ruby_system.directory_controllers.requestToDir.m_msg_count          813                       # Number of messages passed the buffer (Count)
board.cache_hierarchy.ruby_system.directory_controllers.requestToDir.m_buf_msgs     0.000307                       # Average number of messages in buffer ((Count/Tick))
board.cache_hierarchy.ruby_system.directory_controllers.requestToMemory.m_msg_count          813                       # Number of messages passed the buffer (Count)
board.cache_hierarchy.ruby_system.directory_controllers.requestToMemory.m_buf_msgs     0.000308                       # Average number of messages in buffer ((Count/Tick))
board.cache_hierarchy.ruby_system.directory_controllers.requestToMemory.m_stall_time          666                       # Total number of ticks messages were stalled in this buffer (Tick)
board.cache_hierarchy.ruby_system.directory_controllers.requestToMemory.m_avg_stall_time     0.819188                       # Average stall ticks per message ((Tick/Count))
board.cache_hierarchy.ruby_system.directory_controllers.responseFromDir.m_msg_count          813                       # Number of messages passed the buffer (Count)
board.cache_hierarchy.ruby_system.directory_controllers.responseFromDir.m_buf_msgs     0.000307                       # Average number of messages in buffer ((Count/Tick))
board.cache_hierarchy.ruby_system.directory_controllers.responseFromMemory.m_msg_count          813                       # Number of messages passed the buffer (Count)
board.cache_hierarchy.ruby_system.directory_controllers.responseFromMemory.m_buf_msgs     0.000459                       # Average number of messages in buffer ((Count/Tick))
board.cache_hierarchy.ruby_system.l1_controllers0.fullyBusyCycles           71                       # cycles for which number of transistions == max transitions (Unspecified)
board.cache_hierarchy.ruby_system.l1_controllers0.delayHistogram::samples         1333                       # delay_histogram (Unspecified)
board.cache_hierarchy.ruby_system.l1_controllers0.delayHistogram::mean     0.121530                       # delay_histogram (Unspecified)
board.cache_hierarchy.ruby_system.l1_controllers0.delayHistogram::stdev     0.873497                       # delay_histogram (Unspecified)
board.cache_hierarchy.ruby_system.l1_controllers0.delayHistogram::0-1         1302     97.67%     97.67% # delay_histogram (Unspecified)
board.cache_hierarchy.ruby_system.l1_controllers0.delayHistogram::2-3            8      0.60%     98.27% # delay_histogram (Unspecified)
board.cache_hierarchy.ruby_system.l1_controllers0.delayHistogram::4-5            6      0.45%     98.72% # delay_histogram (Unspecified)
board.cache_hierarchy.ruby_system.l1_controllers0.delayHistogram::6-7            9      0.68%     99.40% # delay_histogram (Unspecified)
board.cache_hierarchy.ruby_system.l1_controllers0.delayHistogram::8-9            6      0.45%     99.85% # delay_histogram (Unspecified)
board.cache_hierarchy.ruby_system.l1_controllers0.delayHistogram::10-11            2      0.15%    100.00% # delay_histogram (Unspecified)
board.cache_hierarchy.ruby_system.l1_controllers0.delayHistogram::total         1333                       # delay_histogram (Unspecified)
board.cache_hierarchy.ruby_system.l1_controllers0.L1Dcache.m_demand_hits        17900                       # Number of cache demand hits (Unspecified)
board.cache_hierarchy.ruby_system.l1_controllers0.L1Dcache.m_demand_misses          321                       # Number of cache demand misses (Unspecified)
board.cache_hierarchy.ruby_system.l1_controllers0.L1Dcache.m_demand_accesses        18221                       # Number of cache demand accesses (Unspecified)
board.cache_hierarchy.ruby_system.l1_controllers0.L1Icache.m_demand_hits        11215                       # Number of cache demand hits (Unspecified)
board.cache_hierarchy.ruby_system.l1_controllers0.L1Icache.m_demand_misses          329                       # Number of cache demand misses (Unspecified)
board.cache_hierarchy.ruby_system.l1_controllers0.L1Icache.m_demand_accesses        11544                       # Number of cache demand accesses (Unspecified)
board.cache_hierarchy.ruby_system.l1_controllers0.mandatoryQueue.m_msg_count        29765                       # Number of messages passed the buffer (Count)
board.cache_hierarchy.ruby_system.l1_controllers0.mandatoryQueue.m_buf_msgs     0.011263                       # Average number of messages in buffer ((Count/Tick))
[...]
board.processor.cores8.core.executeStats0.numCCRegWrites        59362                       # Number of times the CC registers were written (Count)
board.processor.cores8.core.executeStats0.numFpRegReads          664                       # Number of times the floating registers were read (Count)
board.processor.cores8.core.executeStats0.numFpRegWrites          399                       # Number of times the floating registers were written (Count)
board.processor.cores8.core.executeStats0.numIntRegReads       386398                       # Number of times the integer registers were read (Count)
board.processor.cores8.core.executeStats0.numIntRegWrites       269271                       # Number of times the integer registers were written (Count)
board.processor.cores8.core.executeStats0.numMemRefs       120455                       # Number of memory refs (Count)
board.processor.cores8.core.executeStats0.numMiscRegReads       171299                       # Number of times the Misc registers were read (Count)
board.processor.cores8.core.executeStats0.numMiscRegWrites            1                       # Number of times the Misc registers were written (Count)
board.processor.cores8.core.executeStats0.numVecAluAccesses            0                       # Number of vector alu accesses (Count)
board.processor.cores8.core.executeStats0.numDiscardedOps            0                       # Number of ops (including micro ops) which were discarded before commit (Count)
board.processor.cores8.core.fetch.predictedBranches        45721                       # Number of branches that fetch has predicted taken (Count)
board.processor.cores8.core.fetch.cycles      2448183                       # Number of cycles fetch has run and was not squashing or blocked (Cycle)
board.processor.cores8.core.fetch.squashCycles         8730                       # Number of cycles fetch has spent squashing (Cycle)
board.processor.cores8.core.fetch.miscStallCycles           29                       # Number of cycles fetch has spent waiting on interrupts, or bad addresses, or out of MSHRs (Cycle)
board.processor.cores8.core.fetch.pendingTrapStallCycles          166                       # Number of stall cycles due to pending traps (Cycle)
board.processor.cores8.core.fetch.icacheWaitRetryStallCycles           16                       # Number of stall cycles due to full MSHR (Cycle)
board.processor.cores8.core.fetch.cacheLines        82788                       # Number of cache lines fetched (Count)
board.processor.cores8.core.fetch.icacheSquashes          120                       # Number of outstanding Icache misses that were squashed (Count)
board.processor.cores8.core.fetch.nisnDist::samples      2544263                       # Number of instructions fetched each cycle (Total) (Count)
board.processor.cores8.core.fetch.nisnDist::mean     0.298433                       # Number of instructions fetched each cycle (Total) (Count)
board.processor.cores8.core.fetch.nisnDist::stdev     1.386847                       # Number of instructions fetched each cycle (Total) (Count)
board.processor.cores8.core.fetch.nisnDist::underflows            0      0.00%      0.00% # Number of instructions fetched each cycle (Total) (Count)
board.processor.cores8.core.fetch.nisnDist::0      2411331     94.78%     94.78% # Number of instructions fetched each cycle (Total) (Count)
board.processor.cores8.core.fetch.nisnDist::1        14430      0.57%     95.34% # Number of instructions fetched each cycle (Total) (Count)
board.processor.cores8.core.fetch.nisnDist::2         4183      0.16%     95.51% # Number of instructions fetched each cycle (Total) (Count)
board.processor.cores8.core.fetch.nisnDist::3         6278      0.25%     95.75% # Number of instructions fetched each cycle (Total) (Count)
board.processor.cores8.core.fetch.nisnDist::4        14445      0.57%     96.32% # Number of instructions fetched each cycle (Total) (Count)
board.processor.cores8.core.fetch.nisnDist::5        20627      0.81%     97.13% # Number of instructions fetched each cycle (Total) (Count)
board.processor.cores8.core.fetch.nisnDist::6        10345      0.41%     97.54% # Number of instructions fetched each cycle (Total) (Count)
board.processor.cores8.core.fetch.nisnDist::7         6315      0.25%     97.79% # Number of instructions fetched each cycle (Total) (Count)
board.processor.cores8.core.fetch.nisnDist::8        56309      2.21%    100.00% # Number of instructions fetched each cycle (Total) (Count)
board.processor.cores8.core.fetch.nisnDist::overflows            0      0.00%    100.00% # Number of instructions fetched each cycle (Total) (Count)
board.processor.cores8.core.fetch.nisnDist::min_value            0                       # Number of instructions fetched each cycle (Total) (Count)
board.processor.cores8.core.fetch.nisnDist::max_value            8                       # Number of instructions fetched each cycle (Total) (Count)
board.processor.cores8.core.fetch.nisnDist::total      2544263                       # Number of instructions fetched each cycle (Total) (Count)
board.processor.cores8.core.fetchStats0.numInsts       487154                       # Number of instructions fetched (thread level) (Count)
board.processor.cores8.core.fetchStats0.numOps            0                       # Number of ops (including micro ops) fetched (thread level) (Count)
board.processor.cores8.core.fetchStats0.fetchRate     0.191274                       # Number of inst fetches per cycle ((Count/Cycle))
board.processor.cores8.core.fetchStats0.numBranches        46364                       # Number of branches fetched (Count)
board.processor.cores8.core.fetchStats0.branchRate     0.018204                       # Number of branch fetches per cycle (Ratio)
board.processor.cores8.core.fetchStats0.icacheStallCycles        91504                       # ICache total stall cycles (Cycle)
board.processor.cores8.core.fetchStats0.numFetchSuspends            0                       # Number of times Execute suspended instruction fetching (Count)
board.processor.cores8.core.iew.idleCycles            0                       # Number of cycles IEW is idle (Cycle)
board.processor.cores8.core.iew.squashCycles         4240                       # Number of cycles IEW is squashing (Cycle)
board.processor.cores8.core.iew.blockCycles      2296211                       # Number of cycles IEW is blocking (Cycle)
board.processor.cores8.core.iew.unblockCycles        11184                       # Number of cycles IEW is unblocking (Cycle)
board.processor.cores8.core.iew.dispatchedInsts       560123                       # Number of instructions dispatched to IQ (Count)
board.processor.cores8.core.iew.dispSquashedInsts           16                       # Number of squashed instructions skipped by dispatch (Count)
board.processor.cores8.core.iew.dispLoadInsts       146451                       # Number of dispatched load instructions (Count)
board.processor.cores8.core.iew.dispStoreInsts        70618                       # Number of dispatched store instructions (Count)
board.processor.cores8.core.iew.dispNonSpecInsts        12334                       # Number of dispatched non-speculative instructions (Count)
board.processor.cores8.core.iew.iqFullEvents         6168                       # Number of times the IQ has become full, causing a stall (Count)
board.processor.cores8.core.iew.lsqFullEvents          916                       # Number of times the LSQ has become full, causing a stall (Count)
board.processor.cores8.core.iew.memOrderViolationEvents         8196                       # Number of memory order violations (Count)
board.processor.cores8.core.iew.predictedTakenIncorrect            8                       # Number of branches that were predicted taken incorrectly (Count)
board.processor.cores8.core.iew.predictedNotTakenIncorrect          129                       # Number of branches that were predicted not taken incorrectly (Count)
board.processor.cores8.core.iew.branchMispredicts          137                       # Number of branch mispredicts detected at execute (Count)
board.processor.cores8.core.iew.instsToCommit       362245                       # Cumulative count of insts sent to commit (Count)
board.processor.cores8.core.iew.writebackCount       362119                       # Cumulative count of insts written-back (Count)
board.processor.cores8.core.iew.producerInst       246564                       # Number of instructions producing a value (Count)
board.processor.cores8.core.iew.consumerInst       361192                       # Number of instructions consuming a value (Count)
board.processor.cores8.core.iew.wbRate       0.142181                       # Insts written-back per cycle ((Count/Cycle))
board.processor.cores8.core.iew.wbFanout     0.682640                       # Average fanout of values written-back ((Count/Count))
board.processor.cores8.core.interrupts.clk_domain.clock         5328                       # Clock period in ticks (Tick)
board.processor.cores8.core.lsq0.forwLoads         8387                       # Number of loads that had data forwarded from stores (Count)
board.processor.cores8.core.lsq0.squashedLoads        92603                       # Number of loads squashed (Count)
board.processor.cores8.core.lsq0.ignoredResponses            0                       # Number of memory responses ignored because the instruction is squashed (Count)
board.processor.cores8.core.lsq0.memOrderViolation         8196                       # Number of memory ordering violations (Count)
board.processor.cores8.core.lsq0.squashedStores        45314                       # Number of stores squashed (Count)
board.processor.cores8.core.lsq0.rescheduledLoads            0                       # Number of loads that were rescheduled (Count)
board.processor.cores8.core.lsq0.blockedByCache            3                       # Number of times an access to memory failed due to the cache being blocked (Count)
board.processor.cores8.core.lsq0.loadToUse::samples        53848                       # Distribution of cycle latency between the first time a load is issued and its completion (Unspecified)
board.processor.cores8.core.lsq0.loadToUse::mean    44.210704                       # Distribution of cycle latency between the first time a load is issued and its completion (Unspecified)
board.processor.cores8.core.lsq0.loadToUse::stdev   138.180793                       # Distribution of cycle latency between the first time a load is issued and its completion (Unspecified)
board.processor.cores8.core.lsq0.loadToUse::0-9        47659     88.51%     88.51% # Distribution of cycle latency between the first time a load is issued and its completion (Unspecified)
board.processor.cores8.core.lsq0.loadToUse::10-19          257      0.48%     88.98% # Distribution of cycle latency between the first time a load is issued and its completion (Unspecified)
board.processor.cores8.core.lsq0.loadToUse::20-29            2      0.00%     88.99% # Distribution of cycle latency between the first time a load is issued and its completion (Unspecified)
board.processor.cores8.core.lsq0.loadToUse::50-59         1799      3.34%     92.33% # Distribution of cycle latency between the first time a load is issued and its completion (Unspecified)
board.processor.cores8.core.lsq0.loadToUse::60-69           36      0.07%     92.40% # Distribution of cycle latency between the first time a load is issued and its completion (Unspecified)
board.processor.cores8.core.lsq0.loadToUse::80-89           14      0.03%     92.42% # Distribution of cycle latency between the first time a load is issued and its completion (Unspecified)
board.processor.cores8.core.lsq0.loadToUse::90-99            7      0.01%     92.43% # Distribution of cycle latency between the first time a load is issued and its completion (Unspecified)
board.processor.cores8.core.lsq0.loadToUse::100-109            1      0.00%     92.44% # Distribution of cycle latency between the first time a load is issued and its completion (Unspecified)
board.processor.cores8.core.lsq0.loadToUse::120-129            9      0.02%     92.45% # Distribution of cycle latency between the first time a load is issued and its completion (Unspecified)
board.processor.cores8.core.lsq0.loadToUse::150-159            1      0.00%     92.45% # Distribution of cycle latency between the first time a load is issued and its completion (Unspecified)
board.processor.cores8.core.lsq0.loadToUse::160-169            1      0.00%     92.46% # Distribution of cycle latency between the first time a load is issued and its completion (Unspecified)
board.processor.cores8.core.lsq0.loadToUse::180-189           10      0.02%     92.48% # Distribution of cycle latency between the first time a load is issued and its completion (Unspecified)
board.processor.cores8.core.lsq0.loadToUse::200-209           11      0.02%     92.50% # Distribution of cycle latency between the first time a load is issued and its completion (Unspecified)
board.processor.cores8.core.lsq0.loadToUse::210-219            2      0.00%     92.50% # Distribution of cycle latency between the first time a load is issued and its completion (Unspecified)
board.processor.cores8.core.lsq0.loadToUse::240-249            1      0.00%     92.50% # Distribution of cycle latency between the first time a load is issued and its completion (Unspecified)
board.processor.cores8.core.lsq0.loadToUse::250-259            2      0.00%     92.50% # Distribution of cycle latency between the first time a load is issued and its completion (Unspecified)
board.processor.cores8.core.lsq0.loadToUse::260-269           13      0.02%     92.53% # Distribution of cycle latency between the first time a load is issued and its completion (Unspecified)
board.processor.cores8.core.lsq0.loadToUse::290-299           14      0.03%     92.55% # Distribution of cycle latency between the first time a load is issued and its completion (Unspecified)
board.processor.cores8.core.lsq0.loadToUse::overflows         4009      7.45%    100.00% # Distribution of cycle latency between the first time a load is issued and its completion (Unspecified)
board.processor.cores8.core.lsq0.loadToUse::min_value            2                       # Distribution of cycle latency between the first time a load is issued and its completion (Unspecified)
board.processor.cores8.core.lsq0.loadToUse::max_value          564                       # Distribution of cycle latency between the first time a load is issued and its completion (Unspecified)
board.processor.cores8.core.lsq0.loadToUse::total        53848                       # Distribution of cycle latency between the first time a load is issued and its completion (Unspecified)
board.processor.cores8.core.mmu.dtb.rdAccesses        82739                       # TLB accesses on read requests (Count)
board.processor.cores8.core.mmu.dtb.wrAccesses        37702                       # TLB accesses on write requests (Count)
board.processor.cores8.core.mmu.dtb.rdMisses           93                       # TLB misses on read requests (Count)
board.processor.cores8.core.mmu.dtb.wrMisses           18                       # TLB misses on write requests (Count)
board.processor.cores8.core.mmu.dtb.walker.power_state.pwrStateResidencyTicks::UNDEFINED   1139959899                       # Cumulative time (in ticks) in various power states (Tick)
board.processor.cores8.core.mmu.itb.rdAccesses            0                       # TLB accesses on read requests (Count)
board.processor.cores8.core.mmu.itb.wrAccesses        82817                       # TLB accesses on write requests (Count)
board.processor.cores8.core.mmu.itb.rdMisses            0                       # TLB misses on read requests (Count)
board.processor.cores8.core.mmu.itb.wrMisses           83                       # TLB misses on write requests (Count)
board.processor.cores8.core.mmu.itb.walker.power_state.pwrStateResidencyTicks::UNDEFINED   1139959899                       # Cumulative time (in ticks) in various power states (Tick)
board.processor.cores8.core.power_state.pwrStateResidencyTicks::ON   1139959899                       # Cumulative time (in ticks) in various power states (Tick)
board.processor.cores8.core.rename.squashCycles         4240                       # Number of cycles rename is squashing (Cycle)
board.processor.cores8.core.rename.idleCycles        50519                       # Number of cycles rename is idle (Cycle)
board.processor.cores8.core.rename.blockCycles      2348618                       # Number of cycles rename is blocking (Cycle)
board.processor.cores8.core.rename.serializeStallCycles            0                       # count of cycles rename stalled for serializing inst (Cycle)
board.processor.cores8.core.rename.runCycles        81220                       # Number of cycles rename is running (Cycle)
board.processor.cores8.core.rename.unblockCycles        59666                       # Number of cycles rename is unblocking (Cycle)
board.processor.cores8.core.rename.renamedInsts       624031                       # Number of instructions processed by rename (Count)
board.processor.cores8.core.rename.ROBFullEvents            4                       # Number of times rename has blocked due to ROB full (Count)
board.processor.cores8.core.rename.IQFullEvents        45223                       # Number of times rename has blocked due to IQ full (Count)
board.processor.cores8.core.rename.LQFullEvents           65                       # Number of times rename has blocked due to LQ full (Count)
board.processor.cores8.core.rename.SQFullEvents         8177                       # Number of times rename has blocked due to SQ full (Count)
board.processor.cores8.core.rename.renamedOperands       806644                       # Number of destination operands rename has renamed (Count)
board.processor.cores8.core.rename.lookups      1864133                       # Number of register rename lookups that rename has made (Count)
board.processor.cores8.core.rename.intLookups       710101                       # Number of integer rename lookups (Count)
board.processor.cores8.core.rename.fpLookups          669                       # Number of floating rename lookups (Count)
board.processor.cores8.core.rename.committedMaps       258507                       # Number of HB maps that are committed (Count)
board.processor.cores8.core.rename.undoneMaps       548137                       # Number of HB maps that are undone due to squashing (Count)
board.processor.cores8.core.rename.serializing            0                       # count of serializing insts renamed (Count)
board.processor.cores8.core.rename.tempSerializing            0                       # count of temporary serializing insts renamed (Count)
board.processor.cores8.core.rename.skidInsts        95735                       # count of insts added to the skid buffer (Count)
board.processor.cores8.core.rob.reads         3054271                       # The number of ROB reads (Count)
board.processor.cores8.core.rob.writes        1165429                       # The number of ROB writes (Count)
board.processor.cores8.core.thread_0.numInsts       129871                       # Number of Instructions committed (Count)
board.processor.cores8.core.thread_0.numOps       202496                       # Number of Ops committed (Count)
board.processor.cores8.core.thread_0.numMemRefs            0                       # Number of Memory References (Count)
board.workload.inst.arm                             0                       # number of arm instructions executed (Count)
board.workload.inst.quiesce                         0                       # number of quiesce instructions executed (Count)

---------- End Simulation Statistics   ----------
