
---------- Begin Simulation Statistics ----------
simSeconds                                   0.000917                       # Number of seconds simulated (Second)
simTicks                                    917001081                       # Number of ticks simulated (Tick)
finalTick                                  1179918567                       # Number of ticks from beginning of simulation (restored from checkpoints and never reset) (Tick)
simFreq                                  1000000000000                       # The number of ticks per simulated second ((Tick/Second))
hostSeconds                                     54.75                       # Real time elapsed on the host (Second)
hostTickRate                                 16748965                       # The number of ticks simulated per host second (ticks/s) ((Tick/Second))
hostMemory                                    1804608                       # Number of bytes of host memory used (Byte)
simInsts                                      1567439                       # Number of instructions simulated (Count)
simOps                                        2497950                       # Number of ops (including micro ops) simulated (Count)
hostInstRate                                    28629                       # Simulator instruction rate (inst/s) ((Count/Second))
hostOpRate                                      45625                       # Simulator op (including micro ops) rate (op/s) ((Count/Second))
board.cache_hierarchy.ruby_system.delayHistogram::bucket_size         1024                       # delay histogram for all message (Unspecified)
board.cache_hierarchy.ruby_system.delayHistogram::max_bucket        10239                       # delay histogram for all message (Unspecified)
board.cache_hierarchy.ruby_system.delayHistogram::samples       220487                       # delay histogram for all message (Unspecified)
board.cache_hierarchy.ruby_system.delayHistogram::mean  1093.929048                       # delay histogram for all message (Unspecified)
board.cache_hierarchy.ruby_system.delayHistogram::stdev  2687.436862                       # delay histogram for all message (Unspecified)
board.cache_hierarchy.ruby_system.delayHistogram |      188478     85.48%     85.48% |         478      0.22%     85.70% |         239      0.11%     85.81% |         384      0.17%     85.98% |         735      0.33%     86.32% |         802      0.36%     86.68% |         880      0.40%     87.08% |       26943     12.22%     99.30% |        1548      0.70%    100.00% |           0      0.00%    100.00% # delay histogram for all message (Unspecified)
board.cache_hierarchy.ruby_system.delayHistogram::total       220487                       # delay histogram for all message (Unspecified)
board.cache_hierarchy.ruby_system.m_outstandReqHistSeqr::bucket_size            2                       (Unspecified)
board.cache_hierarchy.ruby_system.m_outstandReqHistSeqr::max_bucket           19                       (Unspecified)
board.cache_hierarchy.ruby_system.m_outstandReqHistSeqr::samples      1199834                       (Unspecified)
board.cache_hierarchy.ruby_system.m_outstandReqHistSeqr::mean     1.290247                       (Unspecified)
board.cache_hierarchy.ruby_system.m_outstandReqHistSeqr::gmean     1.214780                       (Unspecified)
board.cache_hierarchy.ruby_system.m_outstandReqHistSeqr::stdev     0.530623                       (Unspecified)
board.cache_hierarchy.ruby_system.m_outstandReqHistSeqr |      873602     72.81%     72.81% |      321602     26.80%     99.61% |        3841      0.32%     99.93% |         385      0.03%     99.97% |         176      0.01%     99.98% |          93      0.01%     99.99% |          63      0.01%     99.99% |          50      0.00%    100.00% |          22      0.00%    100.00% |           0      0.00%    100.00% (Unspecified)
board.cache_hierarchy.ruby_system.m_outstandReqHistSeqr::total      1199834                       (Unspecified)
board.cache_hierarchy.ruby_system.m_latencyHistSeqr::bucket_size          256                       (Unspecified)
board.cache_hierarchy.ruby_system.m_latencyHistSeqr::max_bucket         2559                       (Unspecified)
board.cache_hierarchy.ruby_system.m_latencyHistSeqr::samples      1200340                       (Unspecified)
board.cache_hierarchy.ruby_system.m_latencyHistSeqr::mean    33.514760                       (Unspecified)
board.cache_hierarchy.ruby_system.m_latencyHistSeqr::gmean     1.374988                       (Unspecified)
board.cache_hierarchy.ruby_system.m_latencyHistSeqr::stdev   185.149791                       (Unspecified)
board.cache_hierarchy.ruby_system.m_latencyHistSeqr |     1168033     97.31%     97.31% |         461      0.04%     97.35% |         591      0.05%     97.40% |        1173      0.10%     97.49% |       30078      2.51%    100.00% |           4      0.00%    100.00% |           0      0.00%    100.00% |           0      0.00%    100.00% |           0      0.00%    100.00% |           0      0.00%    100.00% (Unspecified)
board.cache_hierarchy.ruby_system.m_latencyHistSeqr::total      1200340                       (Unspecified)
board.cache_hierarchy.ruby_system.m_hitLatencyHistSeqr::bucket_size           32                       (Unspecified)
board.cache_hierarchy.ruby_system.m_hitLatencyHistSeqr::max_bucket          319                       (Unspecified)
board.cache_hierarchy.ruby_system.m_hitLatencyHistSeqr::samples      1129580                       (Unspecified)
board.cache_hierarchy.ruby_system.m_hitLatencyHistSeqr::mean     1.002118                       (Unspecified)
board.cache_hierarchy.ruby_system.m_hitLatencyHistSeqr::gmean     1.000359                       (Unspecified)
board.cache_hierarchy.ruby_system.m_hitLatencyHistSeqr::stdev     0.551745                       (Unspecified)
board.cache_hierarchy.ruby_system.m_hitLatencyHistSeqr |     1129569    100.00%    100.00% |           1      0.00%    100.00% |           0      0.00%    100.00% |           0      0.00%    100.00% |           2      0.00%    100.00% |           2      0.00%    100.00% |           6      0.00%    100.00% |           0      0.00%    100.00% |           0      0.00%    100.00% |           0      0.00%    100.00% (Unspecified)
board.cache_hierarchy.ruby_system.m_hitLatencyHistSeqr::total      1129580                       (Unspecified)
board.cache_hierarchy.ruby_system.m_missLatencyHistSeqr::bucket_size          256                       (Unspecified)
board.cache_hierarchy.ruby_system.m_missLatencyHistSeqr::max_bucket         2559                       (Unspecified)
board.cache_hierarchy.ruby_system.m_missLatencyHistSeqr::samples        70760                       (Unspecified)
board.cache_hierarchy.ruby_system.m_missLatencyHistSeqr::mean   552.531572                       (Unspecified)
board.cache_hierarchy.ruby_system.m_missLatencyHistSeqr::gmean   220.572510                       (Unspecified)
board.cache_hierarchy.ruby_system.m_missLatencyHistSeqr::stdev   543.381476                       (Unspecified)
board.cache_hierarchy.ruby_system.m_missLatencyHistSeqr |       38453     54.34%     54.34% |         461      0.65%     54.99% |         591      0.84%     55.83% |        1173      1.66%     57.49% |       30078     42.51%     99.99% |           4      0.01%    100.00% |           0      0.00%    100.00% |           0      0.00%    100.00% |           0      0.00%    100.00% |           0      0.00%    100.00% (Unspecified)
board.cache_hierarchy.ruby_system.m_missLatencyHistSeqr::total        70760                       (Unspecified)
board.cache_hierarchy.ruby_system.delayVCHist.vnet_0::bucket_size         1024                       # delay histogram for vnet_0 (Unspecified)
board.cache_hierarchy.ruby_system.delayVCHist.vnet_0::max_bucket        10239                       # delay histogram for vnet_0 (Unspecified)
board.cache_hierarchy.ruby_system.delayVCHist.vnet_0::samples       109766                       # delay histogram for vnet_0 (Unspecified)
board.cache_hierarchy.ruby_system.delayVCHist.vnet_0::mean  2197.172567                       # delay histogram for vnet_0 (Unspecified)
board.cache_hierarchy.ruby_system.delayVCHist.vnet_0::stdev  3476.164320                       # delay histogram for vnet_0 (Unspecified)
board.cache_hierarchy.ruby_system.delayVCHist.vnet_0 |       77757     70.84%     70.84% |         478      0.44%     71.27% |         239      0.22%     71.49% |         384      0.35%     71.84% |         735      0.67%     72.51% |         802      0.73%     73.24% |         880      0.80%     74.04% |       26943     24.55%     98.59% |        1548      1.41%    100.00% |           0      0.00%    100.00% # delay histogram for vnet_0 (Unspecified)
board.cache_hierarchy.ruby_system.delayVCHist.vnet_0::total       109766                       # delay histogram for vnet_0 (Unspecified)
board.cache_hierarchy.ruby_system.delayVCHist.vnet_1::bucket_size            4                       # delay histogram for vnet_1 (Unspecified)
board.cache_hierarchy.ruby_system.delayVCHist.vnet_1::max_bucket           39                       # delay histogram for vnet_1 (Unspecified)
board.cache_hierarchy.ruby_system.delayVCHist.vnet_1::samples        75174                       # delay histogram for vnet_1 (Unspecified)
board.cache_hierarchy.ruby_system.delayVCHist.vnet_1::mean     0.296246                       # delay histogram for vnet_1 (Unspecified)
board.cache_hierarchy.ruby_system.delayVCHist.vnet_1::stdev     1.656454                       # delay histogram for vnet_1 (Unspecified)
board.cache_hierarchy.ruby_system.delayVCHist.vnet_1 |       72771     96.80%     96.80% |         251      0.33%     97.14% |        2105      2.80%     99.94% |          12      0.02%     99.95% |          24      0.03%     99.99% |           1      0.00%     99.99% |           8      0.01%    100.00% |           0      0.00%    100.00% |           2      0.00%    100.00% |           0      0.00%    100.00% # delay histogram for vnet_1 (Unspecified)
board.cache_hierarchy.ruby_system.delayVCHist.vnet_1::total        75174                       # delay histogram for vnet_1 (Unspecified)
board.cache_hierarchy.ruby_system.delayVCHist.vnet_2::bucket_size            1                       # delay histogram for vnet_2 (Unspecified)
board.cache_hierarchy.ruby_system.delayVCHist.vnet_2::max_bucket            9                       # delay histogram for vnet_2 (Unspecified)
board.cache_hierarchy.ruby_system.delayVCHist.vnet_2::samples        35547                       # delay histogram for vnet_2 (Unspecified)
board.cache_hierarchy.ruby_system.delayVCHist.vnet_2::mean     0.000563                       # delay histogram for vnet_2 (Unspecified)
board.cache_hierarchy.ruby_system.delayVCHist.vnet_2::stdev     0.033541                       # delay histogram for vnet_2 (Unspecified)
board.cache_hierarchy.ruby_system.delayVCHist.vnet_2 |       35537     99.97%     99.97% |           0      0.00%     99.97% |          10      0.03%    100.00% |           0      0.00%    100.00% |           0      0.00%    100.00% |           0      0.00%    100.00% |           0      0.00%    100.00% |           0      0.00%    100.00% |           0      0.00%    100.00% |           0      0.00%    100.00% # delay histogram for vnet_2 (Unspecified)
board.cache_hierarchy.ruby_system.delayVCHist.vnet_2::total        35547                       # delay histogram for vnet_2 (Unspecified)
board.cache_hierarchy.ruby_system.Directory_Controller.Fetch         1189      0.00%      0.00% (Unspecified)
board.cache_hierarchy.ruby_system.Directory_Controller.Memory_Data         1189      0.00%      0.00% (Unspecified)
board.cache_hierarchy.ruby_system.Directory_Controller.I.Fetch         1189      0.00%      0.00% (Unspecified)
board.cache_hierarchy.ruby_system.Directory_Controller.IM.Memory_Data         1189      0.00%      0.00% (Unspecified)
board.cache_hierarchy.ruby_system.L1Cache_Controller.Load |       12563      5.02%      5.02% |       14890      5.95%     10.97% |       14833      5.93%     16.90% |       14823      5.93%     22.83% |       14848      5.94%     28.76% |       14857      5.94%     34.70% |       14840      5.93%     40.63% |       14841      5.93%     46.57% |       14848      5.94%     52.50% |       14855      5.94%     58.44% |       14843      5.93%     64.37% |       14865      5.94%     70.32% |       14840      5.93%     76.25% |       14862      5.94%     82.19% |       14867      5.94%     88.13% |       14859      5.94%     94.07% |       14833      5.93%    100.00% (Unspecified)
board.cache_hierarchy.ruby_system.L1Cache_Controller.Load::total       250167                       (Unspecified)
board.cache_hierarchy.ruby_system.L1Cache_Controller.Ifetch |       21953      3.18%      3.18% |       41707      6.05%      9.23% |       41703      6.05%     15.28% |       41738      6.05%     21.33% |       41722      6.05%     27.38% |       41738      6.05%     33.43% |       41707      6.05%     39.48% |       41730      6.05%     45.53% |       41719      6.05%     51.58% |       41725      6.05%     57.63% |       41705      6.05%     63.67% |       41784      6.06%     69.73% |       41714      6.05%     75.78% |       41784      6.06%     81.84% |       41775      6.06%     87.89% |       41782      6.06%     93.95% |       41712      6.05%    100.00% (Unspecified)
board.cache_hierarchy.ruby_system.L1Cache_Controller.Ifetch::total       689698                       (Unspecified)
board.cache_hierarchy.ruby_system.L1Cache_Controller.Store |       22344      8.58%      8.58% |       15087      5.79%     14.37% |       14792      5.68%     20.05% |       14792      5.68%     25.73% |       14792      5.68%     31.41% |       14792      5.68%     37.09% |       14792      5.68%     42.76% |       14792      5.68%     48.44% |       14792      5.68%     54.12% |       14792      5.68%     59.80% |       14792      5.68%     65.48% |       15083      5.79%     71.27% |       14792      5.68%     76.95% |       15083      5.79%     82.74% |       15083      5.79%     88.53% |       15083      5.79%     94.32% |       14792      5.68%    100.00% (Unspecified)
board.cache_hierarchy.ruby_system.L1Cache_Controller.Store::total       260475                       (Unspecified)
board.cache_hierarchy.ruby_system.L1Cache_Controller.Inv |          90     34.48%     34.48% |          10      3.83%     38.31% |           9      3.45%     41.76% |          10      3.83%     45.59% |          10      3.83%     49.43% |          11      4.21%     53.64% |           9      3.45%     57.09% |          10      3.83%     60.92% |          10      3.83%     64.75% |          12      4.60%     69.35% |          13      4.98%     74.33% |          13      4.98%     79.31% |          12      4.60%     83.91% |          14      5.36%     89.27% |          11      4.21%     93.49% |           9      3.45%     96.93% |           8      3.07%    100.00% (Unspecified)
board.cache_hierarchy.ruby_system.L1Cache_Controller.Inv::total          261                       (Unspecified)
board.cache_hierarchy.ruby_system.L1Cache_Controller.L1_Replacement |         897      3.34%      3.34% |        1638      6.11%      9.45% |        1610      6.00%     15.45% |        1610      6.00%     21.45% |        1613      6.01%     27.47% |        1613      6.01%     33.48% |        1609      6.00%     39.48% |        1613      6.01%     45.49% |        1612      6.01%     51.50% |        1614      6.02%     57.52% |        1612      6.01%     63.52% |        1641      6.12%     69.64% |        1611      6.01%     75.65% |        1641      6.12%     81.76% |        1640      6.11%     87.88% |        1641      6.12%     93.99% |        1611      6.01%    100.00% (Unspecified)
board.cache_hierarchy.ruby_system.L1Cache_Controller.L1_Replacement::total        26826                       (Unspecified)
board.cache_hierarchy.ruby_system.L1Cache_Controller.Fwd_GETX |          42      0.13%      0.13% |        2008      6.10%      6.23% |        2061      6.26%     12.49% |        2061      6.26%     18.76% |        2061      6.26%     25.02% |        2061      6.26%     31.28% |        2061      6.26%     37.55% |        2061      6.26%     43.81% |        2061      6.26%     50.07% |        2061      6.26%     56.34% |        2061      6.26%     62.60% |        2050      6.23%     68.83% |        2062      6.27%     75.10% |        2050      6.23%     81.33% |        2050      6.23%     87.56% |        2050      6.23%     93.79% |        2045      6.21%    100.00% (Unspecified)
board.cache_hierarchy.ruby_system.L1Cache_Controller.Fwd_GETX::total        32906                       (Unspecified)
board.cache_hierarchy.ruby_system.L1Cache_Controller.Fwd_GETS |         410     17.23%     17.23% |        1809     76.01%     93.24% |          11      0.46%     93.70% |          11      0.46%     94.16% |          13      0.55%     94.71% |          11      0.46%     95.17% |          12      0.50%     95.67% |          11      0.46%     96.13% |          11      0.46%     96.60% |          11      0.46%     97.06% |          13      0.55%     97.61% |          11      0.46%     98.07% |          11      0.46%     98.53% |          10      0.42%     98.95% |          10      0.42%     99.37% |           7      0.29%     99.66% |           8      0.34%    100.00% (Unspecified)
board.cache_hierarchy.ruby_system.L1Cache_Controller.Fwd_GETS::total         2380                       (Unspecified)
board.cache_hierarchy.ruby_system.L1Cache_Controller.Data |           1     14.29%     14.29% |           0      0.00%     14.29% |           0      0.00%     14.29% |           0      0.00%     14.29% |           0      0.00%     14.29% |           0      0.00%     14.29% |           0      0.00%     14.29% |           0      0.00%     14.29% |           0      0.00%     14.29% |           0      0.00%     14.29% |           0      0.00%     14.29% |           1     14.29%     28.57% |           0      0.00%     28.57% |           2     28.57%     57.14% |           2     28.57%     85.71% |           1     14.29%    100.00% |           0      0.00%    100.00% (Unspecified)
board.cache_hierarchy.ruby_system.L1Cache_Controller.Data::total            7                       (Unspecified)
board.cache_hierarchy.ruby_system.L1Cache_Controller.Data_Exclusive |          86      4.06%      4.06% |        1809     85.41%     89.47% |          15      0.71%     90.18% |          13      0.61%     90.79% |          16      0.76%     91.55% |          14      0.66%     92.21% |          16      0.76%     92.97% |          14      0.66%     93.63% |          14      0.66%     94.29% |          14      0.66%     94.95% |          16      0.76%     95.70% |          15      0.71%     96.41% |          16      0.76%     97.17% |          15      0.71%     97.88% |          15      0.71%     98.58% |          15      0.71%     99.29% |          15      0.71%    100.00% (Unspecified)
board.cache_hierarchy.ruby_system.L1Cache_Controller.Data_Exclusive::total         2118                       (Unspecified)
board.cache_hierarchy.ruby_system.L1Cache_Controller.DataS_fromL1 |          52      2.18%      2.18% |         278     11.68%     13.87% |        1813     76.18%     90.04% |          18      0.76%     90.80% |          18      0.76%     91.55% |          19      0.80%     92.35% |          15      0.63%     92.98% |          16      0.67%     93.66% |          18      0.76%     94.41% |          16      0.67%     95.08% |          16      0.67%     95.76% |          15      0.63%     96.39% |          16      0.67%     97.06% |          19      0.80%     97.86% |          16      0.67%     98.53% |          16      0.67%     99.20% |          19      0.80%    100.00% (Unspecified)
board.cache_hierarchy.ruby_system.L1Cache_Controller.DataS_fromL1::total         2380                       (Unspecified)
board.cache_hierarchy.ruby_system.L1Cache_Controller.Data_all_Acks |         800      1.21%      1.21% |        2245      3.40%      4.61% |        2503      3.79%      8.40% |        4301      6.51%     14.91% |        4301      6.51%     21.43% |        4303      6.52%     27.94% |        4301      6.51%     34.45% |        4309      6.52%     40.98% |        4303      6.52%     47.49% |        4308      6.52%     54.02% |        4304      6.52%     60.53% |        4368      6.61%     67.15% |        4302      6.51%     73.66% |        4365      6.61%     80.27% |        4365      6.61%     86.88% |        4368      6.61%     93.49% |        4298      6.51%    100.00% (Unspecified)
board.cache_hierarchy.ruby_system.L1Cache_Controller.Data_all_Acks::total        66044                       (Unspecified)
board.cache_hierarchy.ruby_system.L1Cache_Controller.Ack |          31     12.20%     12.20% |          10      3.94%     16.14% |          14      5.51%     21.65% |          13      5.12%     26.77% |          13      5.12%     31.89% |          12      4.72%     36.61% |          13      5.12%     41.73% |          13      5.12%     46.85% |          14      5.51%     52.36% |          13      5.12%     57.48% |          14      5.51%     62.99% |          20      7.87%     70.87% |          17      6.69%     77.56% |          13      5.12%     82.68% |          16      6.30%     88.98% |          13      5.12%     94.09% |          15      5.91%    100.00% (Unspecified)
board.cache_hierarchy.ruby_system.L1Cache_Controller.Ack::total          254                       (Unspecified)
board.cache_hierarchy.ruby_system.L1Cache_Controller.Ack_all |          26     11.93%     11.93% |          10      4.59%     16.51% |          13      5.96%     22.48% |          13      5.96%     28.44% |          13      5.96%     34.40% |          12      5.50%     39.91% |          12      5.50%     45.41% |          12      5.50%     50.92% |          13      5.96%     56.88% |          12      5.50%     62.39% |          13      5.96%     68.35% |          10      4.59%     72.94% |          13      5.96%     78.90% |          11      5.05%     83.94% |          12      5.50%     89.45% |          10      4.59%     94.04% |          13      5.96%    100.00% (Unspecified)
board.cache_hierarchy.ruby_system.L1Cache_Controller.Ack_all::total          218                       (Unspecified)
board.cache_hierarchy.ruby_system.L1Cache_Controller.WB_Ack |         361     61.82%     61.82% |          13      2.23%     64.04% |          14      2.40%     66.44% |          14      2.40%     68.84% |          14      2.40%     71.23% |          14      2.40%     73.63% |          14      2.40%     76.03% |          14      2.40%     78.42% |          14      2.40%     80.82% |          14      2.40%     83.22% |          14      2.40%     85.62% |          14      2.40%     88.01% |          14      2.40%     90.41% |          14      2.40%     92.81% |          14      2.40%     95.21% |          14      2.40%     97.60% |          14      2.40%    100.00% (Unspecified)
board.cache_hierarchy.ruby_system.L1Cache_Controller.WB_Ack::total          584                       (Unspecified)
board.cache_hierarchy.ruby_system.L1Cache_Controller.NP.Load |         151      0.45%      0.45% |        2089      6.21%      6.65% |        2095      6.22%     12.88% |        2094      6.22%     19.10% |        2097      6.23%     25.33% |        2095      6.22%     31.55% |        2093      6.22%     37.77% |        2095      6.22%     43.99% |        2096      6.23%     50.22% |        2096      6.23%     56.45% |        2097      6.23%     62.68% |        2093      6.22%     68.90% |        2096      6.23%     75.12% |        2093      6.22%     81.34% |        2092      6.21%     87.56% |        2093      6.22%     93.77% |        2096      6.23%    100.00% (Unspecified)
board.cache_hierarchy.ruby_system.L1Cache_Controller.NP.Load::total        33661                       (Unspecified)
board.cache_hierarchy.ruby_system.L1Cache_Controller.NP.Ifetch |         351     11.27%     11.27% |         188      6.04%     17.31% |         162      5.20%     22.51% |         163      5.23%     27.75% |         163      5.23%     32.98% |         165      5.30%     38.28% |         164      5.27%     43.55% |         168      5.39%     48.94% |         164      5.27%     54.21% |         166      5.33%     59.54% |         164      5.27%     64.80% |         192      6.17%     70.97% |         164      5.27%     76.24% |         192      6.17%     82.40% |         192      6.17%     88.57% |         191      6.13%     94.70% |         165      5.30%    100.00% (Unspecified)
board.cache_hierarchy.ruby_system.L1Cache_Controller.NP.Ifetch::total         3114                       (Unspecified)
board.cache_hierarchy.ruby_system.L1Cache_Controller.NP.Store |         393     39.26%     39.26% |          61      6.09%     45.35% |          27      2.70%     48.05% |          28      2.80%     50.85% |          28      2.80%     53.65% |          29      2.90%     56.54% |          28      2.80%     59.34% |          29      2.90%     62.24% |          28      2.80%     65.03% |          29      2.90%     67.93% |          27      2.70%     70.63% |          60      5.99%     76.62% |          27      2.70%     79.32% |          60      5.99%     85.31% |          60      5.99%     91.31% |          60      5.99%     97.30% |          27      2.70%    100.00% (Unspecified)
board.cache_hierarchy.ruby_system.L1Cache_Controller.NP.Store::total         1001                       (Unspecified)
board.cache_hierarchy.ruby_system.L1Cache_Controller.NP.Inv |          12    100.00%    100.00% |           0      0.00%    100.00% |           0      0.00%    100.00% |           0      0.00%    100.00% |           0      0.00%    100.00% |           0      0.00%    100.00% |           0      0.00%    100.00% |           0      0.00%    100.00% |           0      0.00%    100.00% |           0      0.00%    100.00% |           0      0.00%    100.00% |           0      0.00%    100.00% |           0      0.00%    100.00% |           0      0.00%    100.00% |           0      0.00%    100.00% |           0      0.00%    100.00% |           0      0.00%    100.00% (Unspecified)
board.cache_hierarchy.ruby_system.L1Cache_Controller.NP.Inv::total           12                       (Unspecified)
board.cache_hierarchy.ruby_system.L1Cache_Controller.I.Load |          39     65.00%     65.00% |           0      0.00%     65.00% |           0      0.00%     65.00% |           0      0.00%     65.00% |           0      0.00%     65.00% |           0      0.00%     65.00% |           0      0.00%     65.00% |           0      0.00%     65.00% |           0      0.00%     65.00% |           0      0.00%     65.00% |           0      0.00%     65.00% |           3      5.00%     70.00% |           0      0.00%     70.00% |           6     10.00%     80.00% |           5      8.33%     88.33% |           6     10.00%     98.33% |           1      1.67%    100.00% (Unspecified)
board.cache_hierarchy.ruby_system.L1Cache_Controller.I.Load::total           60                       (Unspecified)
board.cache_hierarchy.ruby_system.L1Cache_Controller.I.Store |           4      0.01%      0.01% |        1994      6.10%      6.11% |        2047      6.26%     12.37% |        2047      6.26%     18.62% |        2047      6.26%     24.88% |        2047      6.26%     31.14% |        2047      6.26%     37.40% |        2047      6.26%     43.66% |        2047      6.26%     49.91% |        2047      6.26%     56.17% |        2048      6.26%     62.43% |        2051      6.27%     68.70% |        2047      6.26%     74.96% |        2049      6.26%     81.23% |        2049      6.26%     87.49% |        2050      6.27%     93.76% |        2042      6.24%    100.00% (Unspecified)
board.cache_hierarchy.ruby_system.L1Cache_Controller.I.Store::total        32710                       (Unspecified)
board.cache_hierarchy.ruby_system.L1Cache_Controller.I.L1_Replacement |          57     95.00%     95.00% |           1      1.67%     96.67% |           0      0.00%     96.67% |           0      0.00%     96.67% |           0      0.00%     96.67% |           1      1.67%     98.33% |           0      0.00%     98.33% |           0      0.00%     98.33% |           0      0.00%     98.33% |           1      1.67%    100.00% |           0      0.00%    100.00% |           0      0.00%    100.00% |           0      0.00%    100.00% |           0      0.00%    100.00% |           0      0.00%    100.00% |           0      0.00%    100.00% |           0      0.00%    100.00% (Unspecified)
board.cache_hierarchy.ruby_system.L1Cache_Controller.I.L1_Replacement::total           60                       (Unspecified)
board.cache_hierarchy.ruby_system.L1Cache_Controller.S.Load |         269     20.43%     20.43% |          49      3.72%     24.15% |          64      4.86%     29.01% |          61      4.63%     33.64% |          59      4.48%     38.12% |          63      4.78%     42.90% |          62      4.71%     47.61% |          59      4.48%     52.09% |          67      5.09%     57.18% |          63      4.78%     61.96% |          68      5.16%     67.12% |          77      5.85%     72.97% |          70      5.32%     78.28% |          68      5.16%     83.45% |          77      5.85%     89.29% |          70      5.32%     94.61% |          71      5.39%    100.00% (Unspecified)
board.cache_hierarchy.ruby_system.L1Cache_Controller.S.Load::total         1317                       (Unspecified)
board.cache_hierarchy.ruby_system.L1Cache_Controller.S.Ifetch |       21601      3.15%      3.15% |       41519      6.05%      9.19% |       41541      6.05%     15.24% |       41575      6.06%     21.30% |       41559      6.05%     27.35% |       41573      6.06%     33.41% |       41543      6.05%     39.46% |       41562      6.05%     45.51% |       41555      6.05%     51.56% |       41559      6.05%     57.62% |       41541      6.05%     63.67% |       41592      6.06%     69.73% |       41550      6.05%     75.78% |       41592      6.06%     81.83% |       41583      6.06%     87.89% |       41591      6.06%     93.95% |       41547      6.05%    100.00% (Unspecified)
board.cache_hierarchy.ruby_system.L1Cache_Controller.S.Ifetch::total       686583                       (Unspecified)
board.cache_hierarchy.ruby_system.L1Cache_Controller.S.Store |          25     11.74%     11.74% |          10      4.69%     16.43% |          13      6.10%     22.54% |          13      6.10%     28.64% |          13      6.10%     34.74% |          12      5.63%     40.38% |          12      5.63%     46.01% |          12      5.63%     51.64% |          13      6.10%     57.75% |          12      5.63%     63.38% |          13      6.10%     69.48% |           9      4.23%     73.71% |          13      6.10%     79.81% |          10      4.69%     84.51% |          10      4.69%     89.20% |           9      4.23%     93.43% |          14      6.57%    100.00% (Unspecified)
board.cache_hierarchy.ruby_system.L1Cache_Controller.S.Store::total          213                       (Unspecified)
board.cache_hierarchy.ruby_system.L1Cache_Controller.S.Inv |          77     31.30%     31.30% |          10      4.07%     35.37% |           9      3.66%     39.02% |          10      4.07%     43.09% |          10      4.07%     47.15% |          11      4.47%     51.63% |           9      3.66%     55.28% |          10      4.07%     59.35% |          10      4.07%     63.41% |          12      4.88%     68.29% |          13      5.28%     73.58% |          13      5.28%     78.86% |          12      4.88%     83.74% |          13      5.28%     89.02% |          11      4.47%     93.50% |           9      3.66%     97.15% |           7      2.85%    100.00% (Unspecified)
board.cache_hierarchy.ruby_system.L1Cache_Controller.S.Inv::total          246                       (Unspecified)
board.cache_hierarchy.ruby_system.L1Cache_Controller.S.L1_Replacement |         479      1.83%      1.83% |        1624      6.20%      8.03% |        1596      6.10%     14.13% |        1596      6.10%     20.22% |        1599      6.11%     26.33% |        1598      6.10%     32.43% |        1595      6.09%     38.53% |        1599      6.11%     44.63% |        1598      6.10%     50.74% |        1599      6.11%     56.84% |        1598      6.10%     62.95% |        1627      6.21%     69.16% |        1597      6.10%     75.26% |        1627      6.21%     81.48% |        1626      6.21%     87.69% |        1627      6.21%     93.90% |        1597      6.10%    100.00% (Unspecified)
board.cache_hierarchy.ruby_system.L1Cache_Controller.S.L1_Replacement::total        26182                       (Unspecified)
board.cache_hierarchy.ruby_system.L1Cache_Controller.E.Load |        1763     91.30%     91.30% |          25      1.29%     92.59% |           8      0.41%     93.01% |           8      0.41%     93.42% |          15      0.78%     94.20% |           8      0.41%     94.61% |          12      0.62%     95.24% |           8      0.41%     95.65% |           8      0.41%     96.06% |           9      0.47%     96.53% |           8      0.41%     96.94% |           9      0.47%     97.41% |           9      0.47%     97.88% |          10      0.52%     98.39% |          10      0.52%     98.91% |          10      0.52%     99.43% |          11      0.57%    100.00% (Unspecified)
board.cache_hierarchy.ruby_system.L1Cache_Controller.E.Load::total         1931                       (Unspecified)
board.cache_hierarchy.ruby_system.L1Cache_Controller.E.Store |          30     17.54%     17.54% |           8      4.68%     22.22% |           9      5.26%     27.49% |           8      4.68%     32.16% |           8      4.68%     36.84% |           8      4.68%     41.52% |           9      5.26%     46.78% |           8      4.68%     51.46% |           8      4.68%     56.14% |           8      4.68%     60.82% |           9      5.26%     66.08% |           9      5.26%     71.35% |          10      5.85%     77.19% |           9      5.26%     82.46% |          10      5.85%     88.30% |          10      5.85%     94.15% |          10      5.85%    100.00% (Unspecified)
board.cache_hierarchy.ruby_system.L1Cache_Controller.E.Store::total          171                       (Unspecified)
board.cache_hierarchy.ruby_system.L1Cache_Controller.E.L1_Replacement |          15     48.39%     48.39% |           1      3.23%     51.61% |           1      3.23%     54.84% |           1      3.23%     58.06% |           1      3.23%     61.29% |           1      3.23%     64.52% |           1      3.23%     67.74% |           1      3.23%     70.97% |           1      3.23%     74.19% |           1      3.23%     77.42% |           1      3.23%     80.65% |           1      3.23%     83.87% |           1      3.23%     87.10% |           1      3.23%     90.32% |           1      3.23%     93.55% |           1      3.23%     96.77% |           1      3.23%    100.00% (Unspecified)
board.cache_hierarchy.ruby_system.L1Cache_Controller.E.L1_Replacement::total           31                       (Unspecified)
board.cache_hierarchy.ruby_system.L1Cache_Controller.E.Fwd_GETS |           7      0.38%      0.38% |        1797     98.47%     98.85% |           1      0.05%     98.90% |           1      0.05%     98.96% |           3      0.16%     99.12% |           1      0.05%     99.18% |           2      0.11%     99.29% |           1      0.05%     99.34% |           1      0.05%     99.40% |           1      0.05%     99.45% |           2      0.11%     99.56% |           2      0.11%     99.67% |           1      0.05%     99.73% |           2      0.11%     99.84% |           1      0.05%     99.89% |           1      0.05%     99.95% |           1      0.05%    100.00% (Unspecified)
board.cache_hierarchy.ruby_system.L1Cache_Controller.E.Fwd_GETS::total         1825                       (Unspecified)
board.cache_hierarchy.ruby_system.L1Cache_Controller.M.Load |       10341      4.85%      4.85% |       12727      5.97%     10.82% |       12666      5.94%     16.76% |       12660      5.94%     22.70% |       12677      5.95%     28.65% |       12691      5.95%     34.60% |       12673      5.94%     40.54% |       12679      5.95%     46.49% |       12677      5.95%     52.44% |       12687      5.95%     58.39% |       12670      5.94%     64.33% |       12683      5.95%     70.28% |       12665      5.94%     76.22% |       12685      5.95%     82.17% |       12683      5.95%     88.12% |       12680      5.95%     94.06% |       12654      5.94%    100.00% (Unspecified)
board.cache_hierarchy.ruby_system.L1Cache_Controller.M.Load::total       213198                       (Unspecified)
board.cache_hierarchy.ruby_system.L1Cache_Controller.M.Store |       21892      9.67%      9.67% |       13014      5.75%     15.42% |       12696      5.61%     21.03% |       12696      5.61%     26.64% |       12696      5.61%     32.24% |       12696      5.61%     37.85% |       12696      5.61%     43.46% |       12696      5.61%     49.07% |       12696      5.61%     54.68% |       12696      5.61%     60.29% |       12695      5.61%     65.89% |       12954      5.72%     71.62% |       12695      5.61%     77.22% |       12955      5.72%     82.95% |       12954      5.72%     88.67% |       12954      5.72%     94.39% |       12699      5.61%    100.00% (Unspecified)
board.cache_hierarchy.ruby_system.L1Cache_Controller.M.Store::total       226380                       (Unspecified)
board.cache_hierarchy.ruby_system.L1Cache_Controller.M.L1_Replacement |         346     62.57%     62.57% |          12      2.17%     64.74% |          13      2.35%     67.09% |          13      2.35%     69.44% |          13      2.35%     71.79% |          13      2.35%     74.14% |          13      2.35%     76.49% |          13      2.35%     78.84% |          13      2.35%     81.19% |          13      2.35%     83.54% |          13      2.35%     85.90% |          13      2.35%     88.25% |          13      2.35%     90.60% |          13      2.35%     92.95% |          13      2.35%     95.30% |          13      2.35%     97.65% |          13      2.35%    100.00% (Unspecified)
board.cache_hierarchy.ruby_system.L1Cache_Controller.M.L1_Replacement::total          553                       (Unspecified)
board.cache_hierarchy.ruby_system.L1Cache_Controller.M.Fwd_GETX |          42      0.13%      0.13% |        2008      6.10%      6.23% |        2061      6.26%     12.49% |        2061      6.26%     18.76% |        2061      6.26%     25.02% |        2061      6.26%     31.28% |        2061      6.26%     37.55% |        2061      6.26%     43.81% |        2061      6.26%     50.07% |        2061      6.26%     56.34% |        2061      6.26%     62.60% |        2050      6.23%     68.83% |        2062      6.27%     75.10% |        2050      6.23%     81.33% |        2050      6.23%     87.56% |        2050      6.23%     93.79% |        2045      6.21%    100.00% (Unspecified)
board.cache_hierarchy.ruby_system.L1Cache_Controller.M.Fwd_GETX::total        32906                       (Unspecified)
board.cache_hierarchy.ruby_system.L1Cache_Controller.M.Fwd_GETS |         403     72.61%     72.61% |          12      2.16%     74.77% |          10      1.80%     76.58% |          10      1.80%     78.38% |          10      1.80%     80.18% |          10      1.80%     81.98% |          10      1.80%     83.78% |          10      1.80%     85.59% |          10      1.80%     87.39% |          10      1.80%     89.19% |          11      1.98%     91.17% |           9      1.62%     92.79% |          10      1.80%     94.59% |           8      1.44%     96.04% |           9      1.62%     97.66% |           6      1.08%     98.74% |           7      1.26%    100.00% (Unspecified)
board.cache_hierarchy.ruby_system.L1Cache_Controller.M.Fwd_GETS::total          555                       (Unspecified)
board.cache_hierarchy.ruby_system.L1Cache_Controller.IS.Inv |           1    100.00%    100.00% |           0      0.00%    100.00% |           0      0.00%    100.00% |           0      0.00%    100.00% |           0      0.00%    100.00% |           0      0.00%    100.00% |           0      0.00%    100.00% |           0      0.00%    100.00% |           0      0.00%    100.00% |           0      0.00%    100.00% |           0      0.00%    100.00% |           0      0.00%    100.00% |           0      0.00%    100.00% |           0      0.00%    100.00% |           0      0.00%    100.00% |           0      0.00%    100.00% |           0      0.00%    100.00% (Unspecified)
board.cache_hierarchy.ruby_system.L1Cache_Controller.IS.Inv::total            1                       (Unspecified)
board.cache_hierarchy.ruby_system.L1Cache_Controller.IS.Data_Exclusive |          86      4.06%      4.06% |        1809     85.41%     89.47% |          15      0.71%     90.18% |          13      0.61%     90.79% |          16      0.76%     91.55% |          14      0.66%     92.21% |          16      0.76%     92.97% |          14      0.66%     93.63% |          14      0.66%     94.29% |          14      0.66%     94.95% |          16      0.76%     95.70% |          15      0.71%     96.41% |          16      0.76%     97.17% |          15      0.71%     97.88% |          15      0.71%     98.58% |          15      0.71%     99.29% |          15      0.71%    100.00% (Unspecified)
board.cache_hierarchy.ruby_system.L1Cache_Controller.IS.Data_Exclusive::total         2118                       (Unspecified)
board.cache_hierarchy.ruby_system.L1Cache_Controller.IS.DataS_fromL1 |          52      2.18%      2.18% |         278     11.68%     13.87% |        1813     76.18%     90.04% |          18      0.76%     90.80% |          18      0.76%     91.55% |          19      0.80%     92.35% |          15      0.63%     92.98% |          16      0.67%     93.66% |          18      0.76%     94.41% |          16      0.67%     95.08% |          16      0.67%     95.76% |          15      0.63%     96.39% |          16      0.67%     97.06% |          19      0.80%     97.86% |          16      0.67%     98.53% |          16      0.67%     99.20% |          19      0.80%    100.00% (Unspecified)
board.cache_hierarchy.ruby_system.L1Cache_Controller.IS.DataS_fromL1::total         2380                       (Unspecified)
board.cache_hierarchy.ruby_system.L1Cache_Controller.IS.Data_all_Acks |         403      1.25%      1.25% |         190      0.59%      1.83% |         429      1.33%      3.16% |        2226      6.88%     10.04% |        2226      6.88%     16.93% |        2227      6.89%     23.81% |        2226      6.88%     30.70% |        2233      6.91%     37.60% |        2228      6.89%     44.49% |        2232      6.90%     51.40% |        2229      6.89%     58.29% |        2258      6.98%     65.27% |        2228      6.89%     72.16% |        2257      6.98%     79.14% |        2258      6.98%     86.12% |        2259      6.99%     93.11% |        2228      6.89%    100.00% (Unspecified)
board.cache_hierarchy.ruby_system.L1Cache_Controller.IS.Data_all_Acks::total        32337                       (Unspecified)
board.cache_hierarchy.ruby_system.L1Cache_Controller.IM.Data |           1     14.29%     14.29% |           0      0.00%     14.29% |           0      0.00%     14.29% |           0      0.00%     14.29% |           0      0.00%     14.29% |           0      0.00%     14.29% |           0      0.00%     14.29% |           0      0.00%     14.29% |           0      0.00%     14.29% |           0      0.00%     14.29% |           0      0.00%     14.29% |           1     14.29%     28.57% |           0      0.00%     28.57% |           2     28.57%     57.14% |           2     28.57%     85.71% |           1     14.29%    100.00% |           0      0.00%    100.00% (Unspecified)
board.cache_hierarchy.ruby_system.L1Cache_Controller.IM.Data::total            7                       (Unspecified)
board.cache_hierarchy.ruby_system.L1Cache_Controller.IM.Data_all_Acks |         396      1.17%      1.17% |        2055      6.10%      7.27% |        2074      6.15%     13.42% |        2075      6.16%     19.58% |        2075      6.16%     25.74% |        2076      6.16%     31.90% |        2075      6.16%     38.05% |        2076      6.16%     44.21% |        2075      6.16%     50.37% |        2076      6.16%     56.53% |        2075      6.16%     62.68% |        2110      6.26%     68.94% |        2074      6.15%     75.10% |        2108      6.25%     81.35% |        2107      6.25%     87.60% |        2109      6.26%     93.86% |        2070      6.14%    100.00% (Unspecified)
board.cache_hierarchy.ruby_system.L1Cache_Controller.IM.Data_all_Acks::total        33706                       (Unspecified)
board.cache_hierarchy.ruby_system.L1Cache_Controller.SM.Inv |           0      0.00%      0.00% |           0      0.00%      0.00% |           0      0.00%      0.00% |           0      0.00%      0.00% |           0      0.00%      0.00% |           0      0.00%      0.00% |           0      0.00%      0.00% |           0      0.00%      0.00% |           0      0.00%      0.00% |           0      0.00%      0.00% |           0      0.00%      0.00% |           0      0.00%      0.00% |           0      0.00%      0.00% |           1     50.00%     50.00% |           0      0.00%     50.00% |           0      0.00%     50.00% |           1     50.00%    100.00% (Unspecified)
board.cache_hierarchy.ruby_system.L1Cache_Controller.SM.Inv::total            2                       (Unspecified)
board.cache_hierarchy.ruby_system.L1Cache_Controller.SM.Ack |          31     12.20%     12.20% |          10      3.94%     16.14% |          14      5.51%     21.65% |          13      5.12%     26.77% |          13      5.12%     31.89% |          12      4.72%     36.61% |          13      5.12%     41.73% |          13      5.12%     46.85% |          14      5.51%     52.36% |          13      5.12%     57.48% |          14      5.51%     62.99% |          20      7.87%     70.87% |          17      6.69%     77.56% |          13      5.12%     82.68% |          16      6.30%     88.98% |          13      5.12%     94.09% |          15      5.91%    100.00% (Unspecified)
board.cache_hierarchy.ruby_system.L1Cache_Controller.SM.Ack::total          254                       (Unspecified)
board.cache_hierarchy.ruby_system.L1Cache_Controller.SM.Ack_all |          26     11.93%     11.93% |          10      4.59%     16.51% |          13      5.96%     22.48% |          13      5.96%     28.44% |          13      5.96%     34.40% |          12      5.50%     39.91% |          12      5.50%     45.41% |          12      5.50%     50.92% |          13      5.96%     56.88% |          12      5.50%     62.39% |          13      5.96%     68.35% |          10      4.59%     72.94% |          13      5.96%     78.90% |          11      5.05%     83.94% |          12      5.50%     89.45% |          10      4.59%     94.04% |          13      5.96%    100.00% (Unspecified)
board.cache_hierarchy.ruby_system.L1Cache_Controller.SM.Ack_all::total          218                       (Unspecified)
board.cache_hierarchy.ruby_system.L1Cache_Controller.IS_I.Data_all_Acks |           1    100.00%    100.00% |           0      0.00%    100.00% |           0      0.00%    100.00% |           0      0.00%    100.00% |           0      0.00%    100.00% |           0      0.00%    100.00% |           0      0.00%    100.00% |           0      0.00%    100.00% |           0      0.00%    100.00% |           0      0.00%    100.00% |           0      0.00%    100.00% |           0      0.00%    100.00% |           0      0.00%    100.00% |           0      0.00%    100.00% |           0      0.00%    100.00% |           0      0.00%    100.00% |           0      0.00%    100.00% (Unspecified)
board.cache_hierarchy.ruby_system.L1Cache_Controller.IS_I.Data_all_Acks::total            1                       (Unspecified)
board.cache_hierarchy.ruby_system.L1Cache_Controller.M_I.Ifetch |           1    100.00%    100.00% |           0      0.00%    100.00% |           0      0.00%    100.00% |           0      0.00%    100.00% |           0      0.00%    100.00% |           0      0.00%    100.00% |           0      0.00%    100.00% |           0      0.00%    100.00% |           0      0.00%    100.00% |           0      0.00%    100.00% |           0      0.00%    100.00% |           0      0.00%    100.00% |           0      0.00%    100.00% |           0      0.00%    100.00% |           0      0.00%    100.00% |           0      0.00%    100.00% |           0      0.00%    100.00% (Unspecified)
board.cache_hierarchy.ruby_system.L1Cache_Controller.M_I.Ifetch::total            1                       (Unspecified)
board.cache_hierarchy.ruby_system.L1Cache_Controller.M_I.WB_Ack |         361     61.82%     61.82% |          13      2.23%     64.04% |          14      2.40%     66.44% |          14      2.40%     68.84% |          14      2.40%     71.23% |          14      2.40%     73.63% |          14      2.40%     76.03% |          14      2.40%     78.42% |          14      2.40%     80.82% |          14      2.40%     83.22% |          14      2.40%     85.62% |          14      2.40%     88.01% |          14      2.40%     90.41% |          14      2.40%     92.81% |          14      2.40%     95.21% |          14      2.40%     97.60% |          14      2.40%    100.00% (Unspecified)
board.cache_hierarchy.ruby_system.L1Cache_Controller.M_I.WB_Ack::total          584                       (Unspecified)
board.cache_hierarchy.ruby_system.L2Cache_Controller.L1_GET_INSTR |         212      6.81%      6.81% |         128      4.11%     10.91% |         142      4.56%     15.47% |         168      5.39%     20.87% |         194      6.23%     27.09% |         225      7.22%     34.32% |         260      8.35%     42.66% |         178      5.71%     48.38% |         197      6.32%     54.70% |         206      6.61%     61.32% |         186      5.97%     67.29% |         188      6.04%     73.32% |         198      6.36%     79.68% |         193      6.20%     85.87% |         220      7.06%     92.94% |         220      7.06%    100.00% (Unspecified)
board.cache_hierarchy.ruby_system.L2Cache_Controller.L1_GET_INSTR::total         3115                       (Unspecified)
board.cache_hierarchy.ruby_system.L2Cache_Controller.L1_GETS |        2084      6.18%      6.18% |        2155      6.39%     12.57% |        2133      6.33%     18.90% |        2139      6.34%     25.24% |        2122      6.29%     31.53% |        2122      6.29%     37.82% |        2110      6.26%     44.08% |        2079      6.16%     50.24% |        2090      6.20%     56.44% |        2127      6.31%     62.75% |        2121      6.29%     69.04% |        2052      6.08%     75.12% |        2088      6.19%     81.32% |        2085      6.18%     87.50% |        2114      6.27%     93.77% |        2102      6.23%    100.00% (Unspecified)
board.cache_hierarchy.ruby_system.L2Cache_Controller.L1_GETS::total        33723                       (Unspecified)
board.cache_hierarchy.ruby_system.L2Cache_Controller.L1_GETX |      468709     99.80%     99.80% |          56      0.01%     99.81% |          54      0.01%     99.82% |          56      0.01%     99.83% |          92      0.02%     99.85% |         115      0.02%     99.88% |          76      0.02%     99.89% |          82      0.02%     99.91% |          82      0.02%     99.93% |          49      0.01%     99.94% |          57      0.01%     99.95% |          34      0.01%     99.96% |          65      0.01%     99.97% |          65      0.01%     99.98% |          41      0.01%     99.99% |          32      0.01%    100.00% (Unspecified)
board.cache_hierarchy.ruby_system.L2Cache_Controller.L1_GETX::total       469665                       (Unspecified)
board.cache_hierarchy.ruby_system.L2Cache_Controller.L1_UPGRADE |           1      0.47%      0.47% |          54     25.23%     25.70% |          27     12.62%     38.32% |          13      6.07%     44.39% |          13      6.07%     50.47% |          33     15.42%     65.89% |           5      2.34%     68.22% |           5      2.34%     70.56% |           2      0.93%     71.50% |           2      0.93%     72.43% |          25     11.68%     84.11% |           0      0.00%     84.11% |          13      6.07%     90.19% |           3      1.40%     91.59% |          17      7.94%     99.53% |           1      0.47%    100.00% (Unspecified)
board.cache_hierarchy.ruby_system.L2Cache_Controller.L1_UPGRADE::total          214                       (Unspecified)
board.cache_hierarchy.ruby_system.L2Cache_Controller.L1_PUTX |          23      3.94%      3.94% |          48      8.22%     12.16% |          31      5.31%     17.47% |          47      8.05%     25.51% |          62     10.62%     36.13% |          67     11.47%     47.60% |          45      7.71%     55.31% |          47      8.05%     63.36% |          49      8.39%     71.75% |          30      5.14%     76.88% |          30      5.14%     82.02% |          10      1.71%     83.73% |          31      5.31%     89.04% |          39      6.68%     95.72% |          16      2.74%     98.46% |           9      1.54%    100.00% (Unspecified)
board.cache_hierarchy.ruby_system.L2Cache_Controller.L1_PUTX::total          584                       (Unspecified)
board.cache_hierarchy.ruby_system.L2Cache_Controller.Mem_Data |          61      5.13%      5.13% |          74      6.22%     11.35% |          79      6.64%     18.00% |          81      6.81%     24.81% |          96      8.07%     32.88% |          99      8.33%     41.21% |          83      6.98%     48.19% |          76      6.39%     54.58% |          74      6.22%     60.81% |          75      6.31%     67.12% |          58      4.88%     71.99% |          45      3.78%     75.78% |          67      5.63%     81.41% |          77      6.48%     87.89% |          71      5.97%     93.86% |          73      6.14%    100.00% (Unspecified)
board.cache_hierarchy.ruby_system.L2Cache_Controller.Mem_Data::total         1189                       (Unspecified)
board.cache_hierarchy.ruby_system.L2Cache_Controller.WB_Data |          23      4.14%      4.14% |          83     14.95%     19.10% |          60     10.81%     29.91% |          30      5.41%     35.32% |          33      5.95%     41.26% |          58     10.45%     51.71% |          20      3.60%     55.32% |          21      3.78%     59.10% |          20      3.60%     62.70% |          39      7.03%     69.73% |          43      7.75%     77.48% |          18      3.24%     80.72% |          28      5.05%     85.77% |          20      3.60%     89.37% |          35      6.31%     95.68% |          24      4.32%    100.00% (Unspecified)
board.cache_hierarchy.ruby_system.L2Cache_Controller.WB_Data::total          555                       (Unspecified)
board.cache_hierarchy.ruby_system.L2Cache_Controller.WB_Data_clean |         108      5.92%      5.92% |         113      6.19%     12.11% |         113      6.19%     18.30% |         129      7.07%     25.37% |         113      6.19%     31.56% |         119      6.52%     38.08% |         116      6.36%     44.44% |         113      6.19%     50.63% |         113      6.19%     56.82% |         112      6.14%     62.96% |         114      6.25%     69.21% |         110      6.03%     75.23% |         114      6.25%     81.48% |         116      6.36%     87.84% |         114      6.25%     94.08% |         108      5.92%    100.00% (Unspecified)
board.cache_hierarchy.ruby_system.L2Cache_Controller.WB_Data_clean::total         1825                       (Unspecified)
board.cache_hierarchy.ruby_system.L2Cache_Controller.Unblock |         131      5.50%      5.50% |         196      8.24%     13.74% |         173      7.27%     21.01% |         159      6.68%     27.69% |         146      6.13%     33.82% |         177      7.44%     41.26% |         136      5.71%     46.97% |         134      5.63%     52.61% |         133      5.59%     58.19% |         151      6.34%     64.54% |         157      6.60%     71.13% |         128      5.38%     76.51% |         142      5.97%     82.48% |         136      5.71%     88.19% |         149      6.26%     94.45% |         132      5.55%    100.00% (Unspecified)
board.cache_hierarchy.ruby_system.L2Cache_Controller.Unblock::total         2380                       (Unspecified)
board.cache_hierarchy.ruby_system.L2Cache_Controller.Exclusive_Unblock |       32884     91.24%     91.24% |         255      0.71%     91.95% |         213      0.59%     92.54% |         215      0.60%     93.13% |         256      0.71%     93.84% |         290      0.80%     94.65% |         220      0.61%     95.26% |         220      0.61%     95.87% |         220      0.61%     96.48% |         182      0.50%     96.98% |         199      0.55%     97.54% |         148      0.41%     97.95% |         201      0.56%     98.50% |         195      0.54%     99.05% |         184      0.51%     99.56% |         160      0.44%    100.00% (Unspecified)
board.cache_hierarchy.ruby_system.L2Cache_Controller.Exclusive_Unblock::total        36042                       (Unspecified)
board.cache_hierarchy.ruby_system.L2Cache_Controller.NP.L1_GET_INSTR |          25      6.56%      6.56% |          24      6.30%     12.86% |          26      6.82%     19.69% |          27      7.09%     26.77% |          26      6.82%     33.60% |          28      7.35%     40.94% |          27      7.09%     48.03% |          22      5.77%     53.81% |          19      4.99%     58.79% |          20      5.25%     64.04% |          19      4.99%     69.03% |          22      5.77%     74.80% |          26      6.82%     81.63% |          23      6.04%     87.66% |          23      6.04%     93.70% |          24      6.30%    100.00% (Unspecified)
board.cache_hierarchy.ruby_system.L2Cache_Controller.NP.L1_GET_INSTR::total          381                       (Unspecified)
board.cache_hierarchy.ruby_system.L2Cache_Controller.NP.L1_GETS |           0      0.00%      0.00% |           2      2.74%      2.74% |           0      0.00%      2.74% |           0      0.00%      2.74% |          16     21.92%     24.66% |           1      1.37%     26.03% |           3      4.11%     30.14% |           0      0.00%     30.14% |           1      1.37%     31.51% |          18     24.66%     56.16% |           2      2.74%     58.90% |           1      1.37%     60.27% |           3      4.11%     64.38% |           0      0.00%     64.38% |           9     12.33%     76.71% |          17     23.29%    100.00% (Unspecified)
board.cache_hierarchy.ruby_system.L2Cache_Controller.NP.L1_GETS::total           73                       (Unspecified)
board.cache_hierarchy.ruby_system.L2Cache_Controller.NP.L1_GETX |          36      4.90%      4.90% |          48      6.53%     11.43% |          53      7.21%     18.64% |          54      7.35%     25.99% |          54      7.35%     33.33% |          70      9.52%     42.86% |          53      7.21%     50.07% |          54      7.35%     57.41% |          54      7.35%     64.76% |          37      5.03%     69.80% |          37      5.03%     74.83% |          22      2.99%     77.82% |          38      5.17%     82.99% |          54      7.35%     90.34% |          39      5.31%     95.65% |          32      4.35%    100.00% (Unspecified)
board.cache_hierarchy.ruby_system.L2Cache_Controller.NP.L1_GETX::total          735                       (Unspecified)
board.cache_hierarchy.ruby_system.L2Cache_Controller.SS.L1_GET_INSTR |         187      6.85%      6.85% |         104      3.81%     10.66% |         116      4.25%     14.90% |         141      5.16%     20.07% |         168      6.15%     26.22% |         197      7.21%     33.43% |         232      8.50%     41.93% |         156      5.71%     47.64% |         178      6.52%     54.16% |         185      6.77%     60.93% |         167      6.11%     67.05% |         166      6.08%     73.12% |         172      6.30%     79.42% |         170      6.22%     85.65% |         196      7.18%     92.82% |         196      7.18%    100.00% (Unspecified)
board.cache_hierarchy.ruby_system.L2Cache_Controller.SS.L1_GET_INSTR::total         2731                       (Unspecified)
board.cache_hierarchy.ruby_system.L2Cache_Controller.SS.L1_GETS |        1828      6.26%      6.26% |        1813      6.20%     12.46% |        1828      6.26%     18.71% |        1834      6.28%     24.99% |        1825      6.25%     31.24% |        1803      6.17%     37.41% |        1835      6.28%     43.68% |        1812      6.20%     49.89% |        1821      6.23%     56.12% |        1845      6.31%     62.43% |        1842      6.30%     68.73% |        1810      6.19%     74.93% |        1823      6.24%     81.17% |        1822      6.23%     87.40% |        1839      6.29%     93.69% |        1843      6.31%    100.00% (Unspecified)
board.cache_hierarchy.ruby_system.L2Cache_Controller.SS.L1_GETS::total        29223                       (Unspecified)
board.cache_hierarchy.ruby_system.L2Cache_Controller.SS.L1_GETX |           0      0.00%      0.00% |           0      0.00%      0.00% |           0      0.00%      0.00% |           0      0.00%      0.00% |           3     37.50%     37.50% |           0      0.00%     37.50% |           0      0.00%     37.50% |           0      0.00%     37.50% |           0      0.00%     37.50% |           0      0.00%     37.50% |           4     50.00%     87.50% |           0      0.00%     87.50% |           0      0.00%     87.50% |           0      0.00%     87.50% |           1     12.50%    100.00% |           0      0.00%    100.00% (Unspecified)
board.cache_hierarchy.ruby_system.L2Cache_Controller.SS.L1_GETX::total            8                       (Unspecified)
board.cache_hierarchy.ruby_system.L2Cache_Controller.SS.L1_UPGRADE |           1      0.47%      0.47% |          53     25.12%     25.59% |          27     12.80%     38.39% |          13      6.16%     44.55% |          13      6.16%     50.71% |          33     15.64%     66.35% |           5      2.37%     68.72% |           5      2.37%     71.09% |           2      0.95%     72.04% |           2      0.95%     72.99% |          23     10.90%     83.89% |           0      0.00%     83.89% |          13      6.16%     90.05% |           3      1.42%     91.47% |          17      8.06%     99.53% |           1      0.47%    100.00% (Unspecified)
board.cache_hierarchy.ruby_system.L2Cache_Controller.SS.L1_UPGRADE::total          211                       (Unspecified)
board.cache_hierarchy.ruby_system.L2Cache_Controller.M.L1_GET_INSTR |           0      0.00%      0.00% |           0      0.00%      0.00% |           0      0.00%      0.00% |           0      0.00%      0.00% |           0      0.00%      0.00% |           0      0.00%      0.00% |           0      0.00%      0.00% |           0      0.00%      0.00% |           0      0.00%      0.00% |           0      0.00%      0.00% |           0      0.00%      0.00% |           0      0.00%      0.00% |           0      0.00%      0.00% |           0      0.00%      0.00% |           1    100.00%    100.00% |           0      0.00%    100.00% (Unspecified)
board.cache_hierarchy.ruby_system.L2Cache_Controller.M.L1_GET_INSTR::total            1                       (Unspecified)
board.cache_hierarchy.ruby_system.L2Cache_Controller.M.L1_GETS |         125      6.11%      6.11% |         144      7.04%     13.15% |         132      6.45%     19.61% |         146      7.14%     26.75% |         135      6.60%     33.35% |         141      6.89%     40.24% |         136      6.65%     46.89% |         133      6.50%     53.40% |         135      6.60%     60.00% |         113      5.53%     65.53% |         118      5.77%     71.30% |         113      5.53%     76.82% |         120      5.87%     82.69% |         127      6.21%     88.90% |         117      5.72%     94.62% |         110      5.38%    100.00% (Unspecified)
board.cache_hierarchy.ruby_system.L2Cache_Controller.M.L1_GETS::total         2045                       (Unspecified)
board.cache_hierarchy.ruby_system.L2Cache_Controller.M.L1_GETX |           2      3.12%      3.12% |           1      1.56%      4.69% |           1      1.56%      6.25% |           2      3.12%      9.38% |          20     31.25%     40.62% |          18     28.12%     68.75% |           1      1.56%     70.31% |           1      1.56%     71.88% |           1      1.56%     73.44% |           1      1.56%     75.00% |           1      1.56%     76.56% |           1      1.56%     78.12% |          13     20.31%     98.44% |           0      0.00%     98.44% |           1      1.56%    100.00% |           0      0.00%    100.00% (Unspecified)
board.cache_hierarchy.ruby_system.L2Cache_Controller.M.L1_GETX::total           64                       (Unspecified)
board.cache_hierarchy.ruby_system.L2Cache_Controller.MT.L1_GETS |         131      5.50%      5.50% |         196      8.24%     13.74% |         173      7.27%     21.01% |         159      6.68%     27.69% |         146      6.13%     33.82% |         177      7.44%     41.26% |         136      5.71%     46.97% |         134      5.63%     52.61% |         133      5.59%     58.19% |         151      6.34%     64.54% |         157      6.60%     71.13% |         128      5.38%     76.51% |         142      5.97%     82.48% |         136      5.71%     88.19% |         149      6.26%     94.45% |         132      5.55%    100.00% (Unspecified)
board.cache_hierarchy.ruby_system.L2Cache_Controller.MT.L1_GETS::total         2380                       (Unspecified)
board.cache_hierarchy.ruby_system.L2Cache_Controller.MT.L1_GETX |       32720     99.43%     99.43% |           7      0.02%     99.46% |           0      0.00%     99.46% |           0      0.00%     99.46% |          15      0.05%     99.50% |          27      0.08%     99.58% |          22      0.07%     99.65% |          27      0.08%     99.73% |          27      0.08%     99.81% |          11      0.03%     99.85% |          14      0.04%     99.89% |          11      0.03%     99.92% |          14      0.04%     99.97% |          11      0.03%    100.00% |           0      0.00%    100.00% |           0      0.00%    100.00% (Unspecified)
board.cache_hierarchy.ruby_system.L2Cache_Controller.MT.L1_GETX::total        32906                       (Unspecified)
board.cache_hierarchy.ruby_system.L2Cache_Controller.MT.L1_PUTX |          23      3.94%      3.94% |          48      8.22%     12.16% |          31      5.31%     17.47% |          47      8.05%     25.51% |          62     10.62%     36.13% |          67     11.47%     47.60% |          45      7.71%     55.31% |          47      8.05%     63.36% |          49      8.39%     71.75% |          30      5.14%     76.88% |          30      5.14%     82.02% |          10      1.71%     83.73% |          31      5.31%     89.04% |          39      6.68%     95.72% |          16      2.74%     98.46% |           9      1.54%    100.00% (Unspecified)
board.cache_hierarchy.ruby_system.L2Cache_Controller.MT.L1_PUTX::total          584                       (Unspecified)
board.cache_hierarchy.ruby_system.L2Cache_Controller.ISS.Mem_Data |           0      0.00%      0.00% |           2      2.74%      2.74% |           0      0.00%      2.74% |           0      0.00%      2.74% |          16     21.92%     24.66% |           1      1.37%     26.03% |           3      4.11%     30.14% |           0      0.00%     30.14% |           1      1.37%     31.51% |          18     24.66%     56.16% |           2      2.74%     58.90% |           1      1.37%     60.27% |           3      4.11%     64.38% |           0      0.00%     64.38% |           9     12.33%     76.71% |          17     23.29%    100.00% (Unspecified)
board.cache_hierarchy.ruby_system.L2Cache_Controller.ISS.Mem_Data::total           73                       (Unspecified)
board.cache_hierarchy.ruby_system.L2Cache_Controller.IS.L1_GET_INSTR |           0      0.00%      0.00% |           0      0.00%      0.00% |           0      0.00%      0.00% |           0      0.00%      0.00% |           0      0.00%      0.00% |           0      0.00%      0.00% |           1     50.00%     50.00% |           0      0.00%     50.00% |           0      0.00%     50.00% |           1     50.00%    100.00% |           0      0.00%    100.00% |           0      0.00%    100.00% |           0      0.00%    100.00% |           0      0.00%    100.00% |           0      0.00%    100.00% |           0      0.00%    100.00% (Unspecified)
board.cache_hierarchy.ruby_system.L2Cache_Controller.IS.L1_GET_INSTR::total            2                       (Unspecified)
board.cache_hierarchy.ruby_system.L2Cache_Controller.IS.Mem_Data |          25      6.56%      6.56% |          24      6.30%     12.86% |          26      6.82%     19.69% |          27      7.09%     26.77% |          26      6.82%     33.60% |          28      7.35%     40.94% |          27      7.09%     48.03% |          22      5.77%     53.81% |          19      4.99%     58.79% |          20      5.25%     64.04% |          19      4.99%     69.03% |          22      5.77%     74.80% |          26      6.82%     81.63% |          23      6.04%     87.66% |          23      6.04%     93.70% |          24      6.30%    100.00% (Unspecified)
board.cache_hierarchy.ruby_system.L2Cache_Controller.IS.Mem_Data::total          381                       (Unspecified)
board.cache_hierarchy.ruby_system.L2Cache_Controller.IM.Mem_Data |          36      4.90%      4.90% |          48      6.53%     11.43% |          53      7.21%     18.64% |          54      7.35%     25.99% |          54      7.35%     33.33% |          70      9.52%     42.86% |          53      7.21%     50.07% |          54      7.35%     57.41% |          54      7.35%     64.76% |          37      5.03%     69.80% |          37      5.03%     74.83% |          22      2.99%     77.82% |          38      5.17%     82.99% |          54      7.35%     90.34% |          39      5.31%     95.65% |          32      4.35%    100.00% (Unspecified)
board.cache_hierarchy.ruby_system.L2Cache_Controller.IM.Mem_Data::total          735                       (Unspecified)
board.cache_hierarchy.ruby_system.L2Cache_Controller.SS_MB.L1_GETS |           0      0.00%      0.00% |           0      0.00%      0.00% |           0      0.00%      0.00% |           0      0.00%      0.00% |           0      0.00%      0.00% |           0      0.00%      0.00% |           0      0.00%      0.00% |           0      0.00%      0.00% |           0      0.00%      0.00% |           0      0.00%      0.00% |           1    100.00%    100.00% |           0      0.00%    100.00% |           0      0.00%    100.00% |           0      0.00%    100.00% |           0      0.00%    100.00% |           0      0.00%    100.00% (Unspecified)
board.cache_hierarchy.ruby_system.L2Cache_Controller.SS_MB.L1_GETS::total            1                       (Unspecified)
board.cache_hierarchy.ruby_system.L2Cache_Controller.SS_MB.L1_UPGRADE |           0      0.00%      0.00% |           1     50.00%     50.00% |           0      0.00%     50.00% |           0      0.00%     50.00% |           0      0.00%     50.00% |           0      0.00%     50.00% |           0      0.00%     50.00% |           0      0.00%     50.00% |           0      0.00%     50.00% |           0      0.00%     50.00% |           1     50.00%    100.00% |           0      0.00%    100.00% |           0      0.00%    100.00% |           0      0.00%    100.00% |           0      0.00%    100.00% |           0      0.00%    100.00% (Unspecified)
board.cache_hierarchy.ruby_system.L2Cache_Controller.SS_MB.L1_UPGRADE::total            2                       (Unspecified)
board.cache_hierarchy.ruby_system.L2Cache_Controller.SS_MB.Exclusive_Unblock |           1      0.46%      0.46% |          53     24.20%     24.66% |          27     12.33%     36.99% |          13      5.94%     42.92% |          16      7.31%     50.23% |          33     15.07%     65.30% |           5      2.28%     67.58% |           5      2.28%     69.86% |           2      0.91%     70.78% |           2      0.91%     71.69% |          27     12.33%     84.02% |           0      0.00%     84.02% |          13      5.94%     89.95% |           3      1.37%     91.32% |          18      8.22%     99.54% |           1      0.46%    100.00% (Unspecified)
board.cache_hierarchy.ruby_system.L2Cache_Controller.SS_MB.Exclusive_Unblock::total          219                       (Unspecified)
board.cache_hierarchy.ruby_system.L2Cache_Controller.MT_MB.L1_GETX |      435951    100.00%    100.00% |           0      0.00%    100.00% |           0      0.00%    100.00% |           0      0.00%    100.00% |           0      0.00%    100.00% |           0      0.00%    100.00% |           0      0.00%    100.00% |           0      0.00%    100.00% |           0      0.00%    100.00% |           0      0.00%    100.00% |           0      0.00%    100.00% |           0      0.00%    100.00% |           0      0.00%    100.00% |           0      0.00%    100.00% |           0      0.00%    100.00% |           0      0.00%    100.00% (Unspecified)
board.cache_hierarchy.ruby_system.L2Cache_Controller.MT_MB.L1_GETX::total       435951                       (Unspecified)
board.cache_hierarchy.ruby_system.L2Cache_Controller.MT_MB.Exclusive_Unblock |       32883     91.79%     91.79% |         202      0.56%     92.36% |         186      0.52%     92.88% |         202      0.56%     93.44% |         240      0.67%     94.11% |         257      0.72%     94.83% |         215      0.60%     95.43% |         215      0.60%     96.03% |         218      0.61%     96.64% |         180      0.50%     97.14% |         172      0.48%     97.62% |         148      0.41%     98.03% |         188      0.52%     98.56% |         192      0.54%     99.09% |         166      0.46%     99.56% |         159      0.44%    100.00% (Unspecified)
board.cache_hierarchy.ruby_system.L2Cache_Controller.MT_MB.Exclusive_Unblock::total        35823                       (Unspecified)
board.cache_hierarchy.ruby_system.L2Cache_Controller.MT_IIB.L1_GETS |           0      0.00%      0.00% |           0      0.00%      0.00% |           0      0.00%      0.00% |           0      0.00%      0.00% |           0      0.00%      0.00% |           0      0.00%      0.00% |           0      0.00%      0.00% |           0      0.00%      0.00% |           0      0.00%      0.00% |           0      0.00%      0.00% |           1    100.00%    100.00% |           0      0.00%    100.00% |           0      0.00%    100.00% |           0      0.00%    100.00% |           0      0.00%    100.00% |           0      0.00%    100.00% (Unspecified)
board.cache_hierarchy.ruby_system.L2Cache_Controller.MT_IIB.L1_GETS::total            1                       (Unspecified)
board.cache_hierarchy.ruby_system.L2Cache_Controller.MT_IIB.L1_GETX |           0      0.00%      0.00% |           0      0.00%      0.00% |           0      0.00%      0.00% |           0      0.00%      0.00% |           0      0.00%      0.00% |           0      0.00%      0.00% |           0      0.00%      0.00% |           0      0.00%      0.00% |           0      0.00%      0.00% |           0      0.00%      0.00% |           1    100.00%    100.00% |           0      0.00%    100.00% |           0      0.00%    100.00% |           0      0.00%    100.00% |           0      0.00%    100.00% |           0      0.00%    100.00% (Unspecified)
board.cache_hierarchy.ruby_system.L2Cache_Controller.MT_IIB.L1_GETX::total            1                       (Unspecified)
board.cache_hierarchy.ruby_system.L2Cache_Controller.MT_IIB.WB_Data |          22      4.21%      4.21% |          66     12.64%     16.86% |          59     11.30%     28.16% |          30      5.75%     33.91% |          33      6.32%     40.23% |          58     11.11%     51.34% |          19      3.64%     54.98% |          20      3.83%     58.81% |          20      3.83%     62.64% |          39      7.47%     70.11% |          32      6.13%     76.25% |          18      3.45%     79.69% |          28      5.36%     85.06% |          20      3.83%     88.89% |          35      6.70%     95.59% |          23      4.41%    100.00% (Unspecified)
board.cache_hierarchy.ruby_system.L2Cache_Controller.MT_IIB.WB_Data::total          522                       (Unspecified)
board.cache_hierarchy.ruby_system.L2Cache_Controller.MT_IIB.WB_Data_clean |         108      5.98%      5.98% |         110      6.09%     12.06% |         113      6.25%     18.32% |         114      6.31%     24.63% |         113      6.25%     30.88% |         119      6.59%     37.47% |         116      6.42%     43.88% |         113      6.25%     50.14% |         113      6.25%     56.39% |         112      6.20%     62.59% |         114      6.31%     68.90% |         110      6.09%     74.99% |         114      6.31%     81.29% |         116      6.42%     87.71% |         114      6.31%     94.02% |         108      5.98%    100.00% (Unspecified)
board.cache_hierarchy.ruby_system.L2Cache_Controller.MT_IIB.WB_Data_clean::total         1807                       (Unspecified)
board.cache_hierarchy.ruby_system.L2Cache_Controller.MT_IIB.Unblock |           1      1.96%      1.96% |          20     39.22%     41.18% |           1      1.96%     43.14% |          15     29.41%     72.55% |           0      0.00%     72.55% |           0      0.00%     72.55% |           1      1.96%     74.51% |           1      1.96%     76.47% |           0      0.00%     76.47% |           0      0.00%     76.47% |          11     21.57%     98.04% |           0      0.00%     98.04% |           0      0.00%     98.04% |           0      0.00%     98.04% |           0      0.00%     98.04% |           1      1.96%    100.00% (Unspecified)
board.cache_hierarchy.ruby_system.L2Cache_Controller.MT_IIB.Unblock::total           51                       (Unspecified)
board.cache_hierarchy.ruby_system.L2Cache_Controller.MT_IB.WB_Data |           1      3.03%      3.03% |          17     51.52%     54.55% |           1      3.03%     57.58% |           0      0.00%     57.58% |           0      0.00%     57.58% |           0      0.00%     57.58% |           1      3.03%     60.61% |           1      3.03%     63.64% |           0      0.00%     63.64% |           0      0.00%     63.64% |          11     33.33%     96.97% |           0      0.00%     96.97% |           0      0.00%     96.97% |           0      0.00%     96.97% |           0      0.00%     96.97% |           1      3.03%    100.00% (Unspecified)
board.cache_hierarchy.ruby_system.L2Cache_Controller.MT_IB.WB_Data::total           33                       (Unspecified)
[...]
board.processor.cores9.core.decode.runCycles        31938                       # Number of cycles decode is running (Cycle)
board.processor.cores9.core.decode.unblockCycles        14427                       # Number of cycles decode is unblocking (Cycle)
board.processor.cores9.core.decode.squashCycles         2185                       # Number of cycles decode is squashing (Cycle)
board.processor.cores9.core.decode.branchResolved        14791                       # Number of times decode resolved a branch (Count)
board.processor.cores9.core.decode.branchMispred          115                       # Number of times decode detected a branch misprediction (Count)
board.processor.cores9.core.decode.decodedInsts       319038                       # Number of instructions handled by decode (Count)
board.processor.cores9.core.decode.squashedInsts          575                       # Number of squashed instructions handled by decode (Count)
board.processor.cores9.core.executeStats0.numInsts       184228                       # Number of executed instructions (Count)
board.processor.cores9.core.executeStats0.numNop            0                       # Number of nop insts executed (Count)
board.processor.cores9.core.executeStats0.numBranches        12971                       # Number of branches executed (Count)
board.processor.cores9.core.executeStats0.numLoadInsts        41760                       # Number of load instructions executed (Count)
board.processor.cores9.core.executeStats0.numStoreInsts        18975                       # Number of stores executed (Count)
board.processor.cores9.core.executeStats0.instRate     0.070741                       # Inst execution rate ((Count/Cycle))
board.processor.cores9.core.executeStats0.numCCRegReads        22641                       # Number of times the CC registers were read (Count)
board.processor.cores9.core.executeStats0.numCCRegWrites        30053                       # Number of times the CC registers were written (Count)
board.processor.cores9.core.executeStats0.numFpRegReads           15                       # Number of times the floating registers were read (Count)
board.processor.cores9.core.executeStats0.numFpRegWrites           10                       # Number of times the floating registers were written (Count)
board.processor.cores9.core.executeStats0.numIntRegReads       196346                       # Number of times the integer registers were read (Count)
board.processor.cores9.core.executeStats0.numIntRegWrites       137299                       # Number of times the integer registers were written (Count)
board.processor.cores9.core.executeStats0.numMemRefs        60735                       # Number of memory refs (Count)
board.processor.cores9.core.executeStats0.numMiscRegReads        86635                       # Number of times the Misc registers were read (Count)
board.processor.cores9.core.executeStats0.numMiscRegWrites            1                       # Number of times the Misc registers were written (Count)
board.processor.cores9.core.executeStats0.numVecAluAccesses            0                       # Number of vector alu accesses (Count)
board.processor.cores9.core.executeStats0.numDiscardedOps            0                       # Number of ops (including micro ops) which were discarded before commit (Count)
board.processor.cores9.core.fetch.predictedBranches        23088                       # Number of branches that fetch has predicted taken (Count)
board.processor.cores9.core.fetch.cycles      2551233                       # Number of cycles fetch has run and was not squashing or blocked (Cycle)
board.processor.cores9.core.fetch.squashCycles         4598                       # Number of cycles fetch has spent squashing (Cycle)
board.processor.cores9.core.fetch.miscStallCycles           34                       # Number of cycles fetch has spent waiting on interrupts, or bad addresses, or out of MSHRs (Cycle)
board.processor.cores9.core.fetch.pendingTrapStallCycles          232                       # Number of stall cycles due to pending traps (Cycle)
board.processor.cores9.core.fetch.cacheLines        41753                       # Number of cache lines fetched (Count)
board.processor.cores9.core.fetch.icacheSquashes          103                       # Number of outstanding Icache misses that were squashed (Count)
board.processor.cores9.core.fetch.nisnDist::samples      2601979                       # Number of instructions fetched each cycle (Total) (Count)
board.processor.cores9.core.fetch.nisnDist::mean     0.148409                       # Number of instructions fetched each cycle (Total) (Count)
board.processor.cores9.core.fetch.nisnDist::stdev     0.984156                       # Number of instructions fetched each cycle (Total) (Count)
board.processor.cores9.core.fetch.nisnDist::underflows            0      0.00%      0.00% # Number of instructions fetched each cycle (Total) (Count)
board.processor.cores9.core.fetch.nisnDist::0      2532955     97.35%     97.35% # Number of instructions fetched each cycle (Total) (Count)
board.processor.cores9.core.fetch.nisnDist::1         8248      0.32%     97.66% # Number of instructions fetched each cycle (Total) (Count)
board.processor.cores9.core.fetch.nisnDist::2         2102      0.08%     97.75% # Number of instructions fetched each cycle (Total) (Count)
board.processor.cores9.core.fetch.nisnDist::3         4156      0.16%     97.90% # Number of instructions fetched each cycle (Total) (Count)
board.processor.cores9.core.fetch.nisnDist::4         6239      0.24%     98.14% # Number of instructions fetched each cycle (Total) (Count)
board.processor.cores9.core.fetch.nisnDist::5        12426      0.48%     98.62% # Number of instructions fetched each cycle (Total) (Count)
board.processor.cores9.core.fetch.nisnDist::6         4221      0.16%     98.78% # Number of instructions fetched each cycle (Total) (Count)
board.processor.cores9.core.fetch.nisnDist::7         4230      0.16%     98.95% # Number of instructions fetched each cycle (Total) (Count)
board.processor.cores9.core.fetch.nisnDist::8        27402      1.05%    100.00% # Number of instructions fetched each cycle (Total) (Count)
board.processor.cores9.core.fetch.nisnDist::overflows            0      0.00%    100.00% # Number of instructions fetched each cycle (Total) (Count)
board.processor.cores9.core.fetch.nisnDist::min_value            0                       # Number of instructions fetched each cycle (Total) (Count)
board.processor.cores9.core.fetch.nisnDist::max_value            8                       # Number of instructions fetched each cycle (Total) (Count)
board.processor.cores9.core.fetch.nisnDist::total      2601979                       # Number of instructions fetched each cycle (Total) (Count)
board.processor.cores9.core.fetchStats0.numInsts       246237                       # Number of instructions fetched (thread level) (Count)
board.processor.cores9.core.fetchStats0.numOps            0                       # Number of ops (including micro ops) fetched (thread level) (Count)
board.processor.cores9.core.fetchStats0.fetchRate     0.094551                       # Number of inst fetches per cycle ((Count/Cycle))
board.processor.cores9.core.fetchStats0.numBranches        23635                       # Number of branches fetched (Count)
board.processor.cores9.core.fetchStats0.branchRate     0.009075                       # Number of branch fetches per cycle (Ratio)
board.processor.cores9.core.fetchStats0.icacheStallCycles        48181                       # ICache total stall cycles (Cycle)
board.processor.cores9.core.fetchStats0.numFetchSuspends            0                       # Number of times Execute suspended instruction fetching (Count)
board.processor.cores9.core.iew.idleCycles            0                       # Number of cycles IEW is idle (Cycle)
board.processor.cores9.core.iew.squashCycles         2185                       # Number of cycles IEW is squashing (Cycle)
board.processor.cores9.core.iew.blockCycles      2468634                       # Number of cycles IEW is blocking (Cycle)
board.processor.cores9.core.iew.unblockCycles         6180                       # Number of cycles IEW is unblocking (Cycle)
board.processor.cores9.core.iew.dispatchedInsts       285649                       # Number of instructions dispatched to IQ (Count)
board.processor.cores9.core.iew.dispSquashedInsts           16                       # Number of squashed instructions skipped by dispatch (Count)
board.processor.cores9.core.iew.dispLoadInsts        74730                       # Number of dispatched load instructions (Count)
board.processor.cores9.core.iew.dispStoreInsts        35459                       # Number of dispatched store instructions (Count)
board.processor.cores9.core.iew.dispNonSpecInsts         6170                       # Number of dispatched non-speculative instructions (Count)
board.processor.cores9.core.iew.iqFullEvents         4101                       # Number of times the IQ has become full, causing a stall (Count)
board.processor.cores9.core.iew.lsqFullEvents           31                       # Number of times the LSQ has become full, causing a stall (Count)
board.processor.cores9.core.iew.memOrderViolationEvents         4100                       # Number of memory order violations (Count)
board.processor.cores9.core.iew.predictedTakenIncorrect            9                       # Number of branches that were predicted taken incorrectly (Count)
board.processor.cores9.core.iew.predictedNotTakenIncorrect          123                       # Number of branches that were predicted not taken incorrectly (Count)
board.processor.cores9.core.iew.branchMispredicts          132                       # Number of branch mispredicts detected at execute (Count)
board.processor.cores9.core.iew.instsToCommit       184185                       # Cumulative count of insts sent to commit (Count)
board.processor.cores9.core.iew.writebackCount       184059                       # Cumulative count of insts written-back (Count)
board.processor.cores9.core.iew.producerInst       122555                       # Number of instructions producing a value (Count)
board.processor.cores9.core.iew.consumerInst       181559                       # Number of instructions consuming a value (Count)
board.processor.cores9.core.iew.wbRate       0.070676                       # Insts written-back per cycle ((Count/Cycle))
board.processor.cores9.core.iew.wbFanout     0.675015                       # Average fanout of values written-back ((Count/Count))
board.processor.cores9.core.interrupts.clk_domain.clock         5328                       # Clock period in ticks (Tick)
board.processor.cores9.core.lsq0.forwLoads         4267                       # Number of loads that had data forwarded from stores (Count)
board.processor.cores9.core.lsq0.squashedLoads        47540                       # Number of loads squashed (Count)
board.processor.cores9.core.lsq0.ignoredResponses            0                       # Number of memory responses ignored because the instruction is squashed (Count)
board.processor.cores9.core.lsq0.memOrderViolation         4100                       # Number of memory ordering violations (Count)
board.processor.cores9.core.lsq0.squashedStores        22731                       # Number of stores squashed (Count)
board.processor.cores9.core.lsq0.rescheduledLoads            0                       # Number of loads that were rescheduled (Count)
board.processor.cores9.core.lsq0.blockedByCache            3                       # Number of times an access to memory failed due to the cache being blocked (Count)
board.processor.cores9.core.lsq0.loadToUse::samples        27190                       # Distribution of cycle latency between the first time a load is issued and its completion (Unspecified)
board.processor.cores9.core.lsq0.loadToUse::mean    92.858367                       # Distribution of cycle latency between the first time a load is issued and its completion (Unspecified)
board.processor.cores9.core.lsq0.loadToUse::stdev   301.351001                       # Distribution of cycle latency between the first time a load is issued and its completion (Unspecified)
board.processor.cores9.core.lsq0.loadToUse::0-9        23026     84.69%     84.69% # Distribution of cycle latency between the first time a load is issued and its completion (Unspecified)
board.processor.cores9.core.lsq0.loadToUse::10-19          127      0.47%     85.15% # Distribution of cycle latency between the first time a load is issued and its completion (Unspecified)
board.processor.cores9.core.lsq0.loadToUse::20-29            4      0.01%     85.17% # Distribution of cycle latency between the first time a load is issued and its completion (Unspecified)
board.processor.cores9.core.lsq0.loadToUse::50-59         1933      7.11%     92.28% # Distribution of cycle latency between the first time a load is issued and its completion (Unspecified)
board.processor.cores9.core.lsq0.loadToUse::60-69           31      0.11%     92.39% # Distribution of cycle latency between the first time a load is issued and its completion (Unspecified)
board.processor.cores9.core.lsq0.loadToUse::80-89           10      0.04%     92.43% # Distribution of cycle latency between the first time a load is issued and its completion (Unspecified)
board.processor.cores9.core.lsq0.loadToUse::90-99            7      0.03%     92.45% # Distribution of cycle latency between the first time a load is issued and its completion (Unspecified)
board.processor.cores9.core.lsq0.loadToUse::160-169            1      0.00%     92.46% # Distribution of cycle latency between the first time a load is issued and its completion (Unspecified)
board.processor.cores9.core.lsq0.loadToUse::180-189            1      0.00%     92.46% # Distribution of cycle latency between the first time a load is issued and its completion (Unspecified)
board.processor.cores9.core.lsq0.loadToUse::overflows         2050      7.54%    100.00% # Distribution of cycle latency between the first time a load is issued and its completion (Unspecified)
board.processor.cores9.core.lsq0.loadToUse::min_value            2                       # Distribution of cycle latency between the first time a load is issued and its completion (Unspecified)
board.processor.cores9.core.lsq0.loadToUse::max_value         1217                       # Distribution of cycle latency between the first time a load is issued and its completion (Unspecified)
board.processor.cores9.core.lsq0.loadToUse::total        27190                       # Distribution of cycle latency between the first time a load is issued and its completion (Unspecified)
board.processor.cores9.core.mmu.dtb.rdAccesses        41747                       # TLB accesses on read requests (Count)
board.processor.cores9.core.mmu.dtb.wrAccesses        18975                       # TLB accesses on write requests (Count)
board.processor.cores9.core.mmu.dtb.rdMisses           83                       # TLB misses on read requests (Count)
board.processor.cores9.core.mmu.dtb.wrMisses           10                       # TLB misses on write requests (Count)
board.processor.cores9.core.mmu.dtb.walker.power_state.pwrStateResidencyTicks::UNDEFINED   1179918567                       # Cumulative time (in ticks) in various power states (Tick)
board.processor.cores9.core.mmu.itb.rdAccesses            0                       # TLB accesses on read requests (Count)
board.processor.cores9.core.mmu.itb.wrAccesses        41789                       # TLB accesses on write requests (Count)
board.processor.cores9.core.mmu.itb.rdMisses            0                       # TLB misses on read requests (Count)
board.processor.cores9.core.mmu.itb.wrMisses           78                       # TLB misses on write requests (Count)
board.processor.cores9.core.mmu.itb.walker.power_state.pwrStateResidencyTicks::UNDEFINED   1179918567                       # Cumulative time (in ticks) in various power states (Tick)
board.processor.cores9.core.power_state.pwrStateResidencyTicks::ON   1179918567                       # Cumulative time (in ticks) in various power states (Tick)
board.processor.cores9.core.rename.squashCycles         2185                       # Number of cycles rename is squashing (Cycle)
board.processor.cores9.core.rename.idleCycles        27847                       # Number of cycles rename is idle (Cycle)
board.processor.cores9.core.rename.blockCycles      2502286                       # Number of cycles rename is blocking (Cycle)
board.processor.cores9.core.rename.serializeStallCycles            0                       # count of cycles rename stalled for serializing inst (Cycle)
board.processor.cores9.core.rename.runCycles        42106                       # Number of cycles rename is running (Cycle)
board.processor.cores9.core.rename.unblockCycles        27555                       # Number of cycles rename is unblocking (Cycle)
board.processor.cores9.core.rename.renamedInsts       316750                       # Number of instructions processed by rename (Count)
board.processor.cores9.core.rename.ROBFullEvents           23                       # Number of times rename has blocked due to ROB full (Count)
board.processor.cores9.core.rename.IQFullEvents        24638                       # Number of times rename has blocked due to IQ full (Count)
board.processor.cores9.core.rename.LQFullEvents           69                       # Number of times rename has blocked due to LQ full (Count)
board.processor.cores9.core.rename.SQFullEvents          764                       # Number of times rename has blocked due to SQ full (Count)
board.processor.cores9.core.rename.renamedOperands       407981                       # Number of destination operands rename has renamed (Count)
board.processor.cores9.core.rename.lookups       948110                       # Number of register rename lookups that rename has made (Count)
board.processor.cores9.core.rename.intLookups       360057                       # Number of integer rename lookups (Count)
board.processor.cores9.core.rename.fpLookups           15                       # Number of floating rename lookups (Count)
board.processor.cores9.core.rename.committedMaps       130763                       # Number of HB maps that are committed (Count)
board.processor.cores9.core.rename.undoneMaps       277218                       # Number of HB maps that are undone due to squashing (Count)
board.processor.cores9.core.rename.serializing            0                       # count of serializing insts renamed (Count)
board.processor.cores9.core.rename.tempSerializing            0                       # count of temporary serializing insts renamed (Count)
board.processor.cores9.core.rename.skidInsts        53708                       # count of insts added to the skid buffer (Count)
board.processor.cores9.core.rob.reads         2862197                       # The number of ROB reads (Count)
board.processor.cores9.core.rob.writes         593980                       # The number of ROB writes (Count)
board.processor.cores9.core.thread_0.numInsts        65432                       # Number of Instructions committed (Count)
board.processor.cores9.core.thread_0.numOps       102431                       # Number of Ops committed (Count)
board.processor.cores9.core.thread_0.numMemRefs            0                       # Number of Memory References (Count)
board.workload.inst.arm                             0                       # number of arm instructions executed (Count)
board.workload.inst.quiesce                         0                       # number of quiesce instructions executed (Count)

---------- End Simulation Statistics   ----------
