
---------- Begin Simulation Statistics ----------
simSeconds                                   0.000779                       # Number of seconds simulated (Second)
simTicks                                    778680540                       # Number of ticks simulated (Tick)
finalTick                                  1034236395                       # Number of ticks from beginning of simulation (restored from checkpoints and never reset) (Tick)
simFreq                                  1000000000000                       # The number of ticks per simulated second ((Tick/Second))
hostSeconds                                     15.57                       # Real time elapsed on the host (Second)
hostTickRate                                 50026150                       # The number of ticks simulated per host second (ticks/s) ((Tick/Second))
hostMemory                                    1503540                       # Number of bytes of host memory used (Byte)
simInsts                                      1458605                       # Number of instructions simulated (Count)
simOps                                        2291599                       # Number of ops (including micro ops) simulated (Count)
hostInstRate                                    93707                       # Simulator instruction rate (inst/s) ((Count/Second))
hostOpRate                                     147222                       # Simulator op (including micro ops) rate (op/s) ((Count/Second))
board.cache_hierarchy.ruby_system.delayHistogram::bucket_size            8                       # delay histogram for all message (Unspecified)
board.cache_hierarchy.ruby_system.delayHistogram::max_bucket           79                       # delay histogram for all message (Unspecified)
board.cache_hierarchy.ruby_system.delayHistogram::samples       138031                       # delay histogram for all message (Unspecified)
board.cache_hierarchy.ruby_system.delayHistogram::mean     0.538879                       # delay histogram for all message (Unspecified)
board.cache_hierarchy.ruby_system.delayHistogram::stdev     4.135737                       # delay histogram for all message (Unspecified)
board.cache_hierarchy.ruby_system.delayHistogram |      134734     97.61%     97.61% |        2221      1.61%     99.22% |          58      0.04%     99.26% |         137      0.10%     99.36% |          29      0.02%     99.38% |         581      0.42%     99.80% |         266      0.19%    100.00% |           5      0.00%    100.00% |           0      0.00%    100.00% |           0      0.00%    100.00% # delay histogram for all message (Unspecified)
board.cache_hierarchy.ruby_system.delayHistogram::total       138031                       # delay histogram for all message (Unspecified)
board.cache_hierarchy.ruby_system.m_outstandReqHistSeqr::bucket_size            2                       (Unspecified)
board.cache_hierarchy.ruby_system.m_outstandReqHistSeqr::max_bucket           19                       (Unspecified)
board.cache_hierarchy.ruby_system.m_outstandReqHistSeqr::samples      1126517                       (Unspecified)
board.cache_hierarchy.ruby_system.m_outstandReqHistSeqr::mean     1.091874                       (Unspecified)
board.cache_hierarchy.ruby_system.m_outstandReqHistSeqr::gmean     1.063985                       (Unspecified)
board.cache_hierarchy.ruby_system.m_outstandReqHistSeqr::stdev     0.322049                       (Unspecified)
board.cache_hierarchy.ruby_system.m_outstandReqHistSeqr |     1028041     91.26%     91.26% |       97410      8.65%     99.91% |         833      0.07%     99.98% |         110      0.01%     99.99% |          65      0.01%     99.99% |          21      0.00%    100.00% |          12      0.00%    100.00% |          15      0.00%    100.00% |          10      0.00%    100.00% |           0      0.00%    100.00% (Unspecified)
board.cache_hierarchy.ruby_system.m_outstandReqHistSeqr::total      1126517                       (Unspecified)
board.cache_hierarchy.ruby_system.m_latencyHistSeqr::bucket_size          256                       (Unspecified)
board.cache_hierarchy.ruby_system.m_latencyHistSeqr::max_bucket         2559                       (Unspecified)
board.cache_hierarchy.ruby_system.m_latencyHistSeqr::samples      1126644                       (Unspecified)
board.cache_hierarchy.ruby_system.m_latencyHistSeqr::mean     3.000390                       (Unspecified)
board.cache_hierarchy.ruby_system.m_latencyHistSeqr::gmean     1.136373                       (Unspecified)
board.cache_hierarchy.ruby_system.m_latencyHistSeqr::stdev    12.060398                       (Unspecified)
board.cache_hierarchy.ruby_system.m_latencyHistSeqr |     1126612    100.00%    100.00% |          27      0.00%    100.00% |           0      0.00%    100.00% |           0      0.00%    100.00% |           2      0.00%    100.00% |           3      0.00%    100.00% |           0      0.00%    100.00% |           0      0.00%    100.00% |           0      0.00%    100.00% |           0      0.00%    100.00% (Unspecified)
board.cache_hierarchy.ruby_system.m_latencyHistSeqr::total      1126644                       (Unspecified)
board.cache_hierarchy.ruby_system.m_hitLatencyHistSeqr::bucket_size           32                       (Unspecified)
board.cache_hierarchy.ruby_system.m_hitLatencyHistSeqr::max_bucket          319                       (Unspecified)
board.cache_hierarchy.ruby_system.m_hitLatencyHistSeqr::samples      1091863                       (Unspecified)
board.cache_hierarchy.ruby_system.m_hitLatencyHistSeqr::mean     1.000457                       (Unspecified)
board.cache_hierarchy.ruby_system.m_hitLatencyHistSeqr::gmean     1.000094                       (Unspecified)
board.cache_hierarchy.ruby_system.m_hitLatencyHistSeqr::stdev     0.219689                       (Unspecified)
board.cache_hierarchy.ruby_system.m_hitLatencyHistSeqr |     1091860    100.00%    100.00% |           1      0.00%    100.00% |           0      0.00%    100.00% |           0      0.00%    100.00% |           1      0.00%    100.00% |           1      0.00%    100.00% |           0      0.00%    100.00% |           0      0.00%    100.00% |           0      0.00%    100.00% |           0      0.00%    100.00% (Unspecified)
board.cache_hierarchy.ruby_system.m_hitLatencyHistSeqr::total      1091863                       (Unspecified)
board.cache_hierarchy.ruby_system.m_missLatencyHistSeqr::bucket_size          256                       (Unspecified)
board.cache_hierarchy.ruby_system.m_missLatencyHistSeqr::max_bucket         2559                       (Unspecified)
board.cache_hierarchy.ruby_system.m_missLatencyHistSeqr::samples        34781                       (Unspecified)
board.cache_hierarchy.ruby_system.m_missLatencyHistSeqr::mean    65.783301                       (Unspecified)
board.cache_hierarchy.ruby_system.m_missLatencyHistSeqr::gmean    62.686341                       (Unspecified)
board.cache_hierarchy.ruby_system.m_missLatencyHistSeqr::stdev    25.354255                       (Unspecified)
board.cache_hierarchy.ruby_system.m_missLatencyHistSeqr |       34749     99.91%     99.91% |          27      0.08%     99.99% |           0      0.00%     99.99% |           0      0.00%     99.99% |           2      0.01%     99.99% |           3      0.01%    100.00% |           0      0.00%    100.00% |           0      0.00%    100.00% |           0      0.00%    100.00% |           0      0.00%    100.00% (Unspecified)
board.cache_hierarchy.ruby_system.m_missLatencyHistSeqr::total        34781                       (Unspecified)
board.cache_hierarchy.ruby_system.delayVCHist.vnet_0::bucket_size            8                       # delay histogram for vnet_0 (Unspecified)
board.cache_hierarchy.ruby_system.delayVCHist.vnet_0::max_bucket           79                       # delay histogram for vnet_0 (Unspecified)
board.cache_hierarchy.ruby_system.delayVCHist.vnet_0::samples        68659                       # delay histogram for vnet_0 (Unspecified)
board.cache_hierarchy.ruby_system.delayVCHist.vnet_0::mean     0.821276                       # delay histogram for vnet_0 (Unspecified)
board.cache_hierarchy.ruby_system.delayVCHist.vnet_0::stdev     5.643106                       # delay histogram for vnet_0 (Unspecified)
board.cache_hierarchy.ruby_system.delayVCHist.vnet_0 |       67291     98.01%     98.01% |         297      0.43%     98.44% |          55      0.08%     98.52% |         135      0.20%     98.72% |          29      0.04%     98.76% |         581      0.85%     99.61% |         266      0.39%     99.99% |           5      0.01%    100.00% |           0      0.00%    100.00% |           0      0.00%    100.00% # delay histogram for vnet_0 (Unspecified)
board.cache_hierarchy.ruby_system.delayVCHist.vnet_0::total        68659                       # delay histogram for vnet_0 (Unspecified)
board.cache_hierarchy.ruby_system.delayVCHist.vnet_1::bucket_size            4                       # delay histogram for vnet_1 (Unspecified)
board.cache_hierarchy.ruby_system.delayVCHist.vnet_1::max_bucket           39                       # delay histogram for vnet_1 (Unspecified)
board.cache_hierarchy.ruby_system.delayVCHist.vnet_1::samples        37585                       # delay histogram for vnet_1 (Unspecified)
board.cache_hierarchy.ruby_system.delayVCHist.vnet_1::mean     0.478755                       # delay histogram for vnet_1 (Unspecified)
board.cache_hierarchy.ruby_system.delayVCHist.vnet_1::stdev     2.061200                       # delay histogram for vnet_1 (Unspecified)
board.cache_hierarchy.ruby_system.delayVCHist.vnet_1 |       35630     94.80%     94.80% |          26      0.07%     94.87% |        1920      5.11%     99.98% |           4      0.01%     99.99% |           3      0.01%     99.99% |           0      0.00%     99.99% |           2      0.01%    100.00% |           0      0.00%    100.00% |           0      0.00%    100.00% |           0      0.00%    100.00% # delay histogram for vnet_1 (Unspecified)
board.cache_hierarchy.ruby_system.delayVCHist.vnet_1::total        37585                       # delay histogram for vnet_1 (Unspecified)
board.cache_hierarchy.ruby_system.delayVCHist.vnet_2::bucket_size            1                       # delay histogram for vnet_2 (Unspecified)
board.cache_hierarchy.ruby_system.delayVCHist.vnet_2::max_bucket            9                       # delay histogram for vnet_2 (Unspecified)
board.cache_hierarchy.ruby_system.delayVCHist.vnet_2::samples        31787                       # delay histogram for vnet_2 (Unspecified)
board.cache_hierarchy.ruby_system.delayVCHist.vnet_2 |       31787    100.00%    100.00% |           0      0.00%    100.00% |           0      0.00%    100.00% |           0      0.00%    100.00% |           0      0.00%    100.00% |           0      0.00%    100.00% |           0      0.00%    100.00% |           0      0.00%    100.00% |           0      0.00%    100.00% |           0      0.00%    100.00% # delay histogram for vnet_2 (Unspecified)
board.cache_hierarchy.ruby_system.delayVCHist.vnet_2::total        31787                       # delay histogram for vnet_2 (Unspecified)
board.cache_hierarchy.ruby_system.Directory_Controller.Fetch          537      0.00%      0.00% (Unspecified)
board.cache_hierarchy.ruby_system.Directory_Controller.Memory_Data          537      0.00%      0.00% (Unspecified)
board.cache_hierarchy.ruby_system.Directory_Controller.I.Fetch          537      0.00%      0.00% (Unspecified)
board.cache_hierarchy.ruby_system.Directory_Controller.IM.Memory_Data          537      0.00%      0.00% (Unspecified)
board.cache_hierarchy.ruby_system.L1Cache_Controller.Load |        1953      0.84%      0.84% |      115248     49.59%     50.43% |      115217     49.57%    100.00% (Unspecified)
board.cache_hierarchy.ruby_system.L1Cache_Controller.Load::total       232418                       (Unspecified)
board.cache_hierarchy.ruby_system.L1Cache_Controller.Ifetch |        3213      0.49%      0.49% |      328455     49.75%     50.23% |      328590     49.77%    100.00% (Unspecified)
board.cache_hierarchy.ruby_system.L1Cache_Controller.Ifetch::total       660258                       (Unspecified)
board.cache_hierarchy.ruby_system.L1Cache_Controller.Store |        3083      1.32%      1.32% |      115438     49.34%     50.66% |      115447     49.34%    100.00% (Unspecified)
board.cache_hierarchy.ruby_system.L1Cache_Controller.Store::total       233968                       (Unspecified)
board.cache_hierarchy.ruby_system.L1Cache_Controller.Inv |          14     48.28%     48.28% |           7     24.14%     72.41% |           8     27.59%    100.00% (Unspecified)
board.cache_hierarchy.ruby_system.L1Cache_Controller.Inv::total           29                       (Unspecified)
board.cache_hierarchy.ruby_system.L1Cache_Controller.L1_Replacement |         409     11.09%     11.09% |        1641     44.48%     55.57% |        1639     44.43%    100.00% (Unspecified)
board.cache_hierarchy.ruby_system.L1Cache_Controller.L1_Replacement::total         3689                       (Unspecified)
board.cache_hierarchy.ruby_system.L1Cache_Controller.Fwd_GETX |           6      0.02%      0.02% |       14829     49.99%     50.02% |       14826     49.98%    100.00% (Unspecified)
board.cache_hierarchy.ruby_system.L1Cache_Controller.Fwd_GETX::total        29661                       (Unspecified)
board.cache_hierarchy.ruby_system.L1Cache_Controller.Fwd_GETS |         386     18.41%     18.41% |        1702     81.16%     99.57% |           9      0.43%    100.00% (Unspecified)
board.cache_hierarchy.ruby_system.L1Cache_Controller.Fwd_GETS::total         2097                       (Unspecified)
board.cache_hierarchy.ruby_system.L1Cache_Controller.Data_Exclusive |          50      2.82%      2.82% |        1710     96.34%     99.15% |          15      0.85%    100.00% (Unspecified)
board.cache_hierarchy.ruby_system.L1Cache_Controller.Data_Exclusive::total         1775                       (Unspecified)
board.cache_hierarchy.ruby_system.L1Cache_Controller.DataS_fromL1 |           5      0.24%      0.24% |         380     18.12%     18.36% |        1712     81.64%    100.00% (Unspecified)
board.cache_hierarchy.ruby_system.L1Cache_Controller.DataS_fromL1::total         2097                       (Unspecified)
board.cache_hierarchy.ruby_system.L1Cache_Controller.Data_all_Acks |         359      1.16%      1.16% |       15082     48.83%     50.00% |       15444     50.00%    100.00% (Unspecified)
board.cache_hierarchy.ruby_system.L1Cache_Controller.Data_all_Acks::total        30885                       (Unspecified)
board.cache_hierarchy.ruby_system.L1Cache_Controller.Ack |           5     17.24%     17.24% |          13     44.83%     62.07% |          11     37.93%    100.00% (Unspecified)
board.cache_hierarchy.ruby_system.L1Cache_Controller.Ack::total           29                       (Unspecified)
board.cache_hierarchy.ruby_system.L1Cache_Controller.Ack_all |           4     16.67%     16.67% |          11     45.83%     62.50% |           9     37.50%    100.00% (Unspecified)
board.cache_hierarchy.ruby_system.L1Cache_Controller.Ack_all::total           24                       (Unspecified)
board.cache_hierarchy.ruby_system.L1Cache_Controller.WB_Ack |         114     80.85%     80.85% |          13      9.22%     90.07% |          14      9.93%    100.00% (Unspecified)
board.cache_hierarchy.ruby_system.L1Cache_Controller.WB_Ack::total          141                       (Unspecified)
board.cache_hierarchy.ruby_system.L1Cache_Controller.NP.Load |          53      1.25%      1.25% |        2091     49.37%     50.63% |        2091     49.37%    100.00% (Unspecified)
board.cache_hierarchy.ruby_system.L1Cache_Controller.NP.Load::total         4235                       (Unspecified)
board.cache_hierarchy.ruby_system.L1Cache_Controller.NP.Ifetch |         289     43.07%     43.07% |         190     28.32%     71.39% |         192     28.61%    100.00% (Unspecified)
board.cache_hierarchy.ruby_system.L1Cache_Controller.NP.Ifetch::total          671                       (Unspecified)
board.cache_hierarchy.ruby_system.L1Cache_Controller.NP.Store |          66     35.29%     35.29% |          61     32.62%     67.91% |          60     32.09%    100.00% (Unspecified)
board.cache_hierarchy.ruby_system.L1Cache_Controller.NP.Store::total          187                       (Unspecified)
board.cache_hierarchy.ruby_system.L1Cache_Controller.I.Load |           4     40.00%     40.00% |           5     50.00%     90.00% |           1     10.00%    100.00% (Unspecified)
board.cache_hierarchy.ruby_system.L1Cache_Controller.I.Load::total           10                       (Unspecified)
board.cache_hierarchy.ruby_system.L1Cache_Controller.I.Store |           2      0.01%      0.01% |       14823     49.99%     50.00% |       14824     50.00%    100.00% (Unspecified)
board.cache_hierarchy.ruby_system.L1Cache_Controller.I.Store::total        29649                       (Unspecified)
board.cache_hierarchy.ruby_system.L1Cache_Controller.I.L1_Replacement |           0      0.00%      0.00% |           1    100.00%    100.00% |           0      0.00%    100.00% (Unspecified)
board.cache_hierarchy.ruby_system.L1Cache_Controller.I.L1_Replacement::total            1                       (Unspecified)
board.cache_hierarchy.ruby_system.L1Cache_Controller.S.Load |          14      0.08%      0.08% |        2615     15.34%     15.42% |       14416     84.58%    100.00% (Unspecified)
board.cache_hierarchy.ruby_system.L1Cache_Controller.S.Load::total        17045                       (Unspecified)
board.cache_hierarchy.ruby_system.L1Cache_Controller.S.Ifetch |        2924      0.44%      0.44% |      328265     49.77%     50.21% |      328398     49.79%    100.00% (Unspecified)
board.cache_hierarchy.ruby_system.L1Cache_Controller.S.Ifetch::total       659587                       (Unspecified)
board.cache_hierarchy.ruby_system.L1Cache_Controller.S.Store |           4     13.79%     13.79% |          13     44.83%     58.62% |          12     41.38%    100.00% (Unspecified)
board.cache_hierarchy.ruby_system.L1Cache_Controller.S.Store::total           29                       (Unspecified)
board.cache_hierarchy.ruby_system.L1Cache_Controller.S.Inv |          14     58.33%     58.33% |           5     20.83%     79.17% |           5     20.83%    100.00% (Unspecified)
board.cache_hierarchy.ruby_system.L1Cache_Controller.S.Inv::total           24                       (Unspecified)
board.cache_hierarchy.ruby_system.L1Cache_Controller.S.L1_Replacement |         295      8.32%      8.32% |        1627     45.87%     54.19% |        1625     45.81%    100.00% (Unspecified)
board.cache_hierarchy.ruby_system.L1Cache_Controller.S.L1_Replacement::total         3547                       (Unspecified)
board.cache_hierarchy.ruby_system.L1Cache_Controller.E.Load |         291      2.40%      2.40% |       11807     97.52%     99.93% |           9      0.07%    100.00% (Unspecified)
board.cache_hierarchy.ruby_system.L1Cache_Controller.E.Load::total        12107                       (Unspecified)
board.cache_hierarchy.ruby_system.L1Cache_Controller.E.Store |          20     52.63%     52.63% |           8     21.05%     73.68% |          10     26.32%    100.00% (Unspecified)
board.cache_hierarchy.ruby_system.L1Cache_Controller.E.Store::total           38                       (Unspecified)
board.cache_hierarchy.ruby_system.L1Cache_Controller.E.L1_Replacement |           2     50.00%     50.00% |           1     25.00%     75.00% |           1     25.00%    100.00% (Unspecified)
board.cache_hierarchy.ruby_system.L1Cache_Controller.E.L1_Replacement::total            4                       (Unspecified)
board.cache_hierarchy.ruby_system.L1Cache_Controller.E.Fwd_GETS |           8      0.47%      0.47% |        1698     99.47%     99.94% |           1      0.06%    100.00% (Unspecified)
board.cache_hierarchy.ruby_system.L1Cache_Controller.E.Fwd_GETS::total         1707                       (Unspecified)
board.cache_hierarchy.ruby_system.L1Cache_Controller.M.Load |        1591      0.80%      0.80% |       98730     49.61%     50.41% |       98700     49.59%    100.00% (Unspecified)
board.cache_hierarchy.ruby_system.L1Cache_Controller.M.Load::total       199021                       (Unspecified)
board.cache_hierarchy.ruby_system.L1Cache_Controller.M.Store |        2991      1.47%      1.47% |      100533     49.27%     50.73% |      100541     49.27%    100.00% (Unspecified)
board.cache_hierarchy.ruby_system.L1Cache_Controller.M.Store::total       204065                       (Unspecified)
board.cache_hierarchy.ruby_system.L1Cache_Controller.M.L1_Replacement |         112     81.75%     81.75% |          12      8.76%     90.51% |          13      9.49%    100.00% (Unspecified)
board.cache_hierarchy.ruby_system.L1Cache_Controller.M.L1_Replacement::total          137                       (Unspecified)
board.cache_hierarchy.ruby_system.L1Cache_Controller.M.Fwd_GETX |           6      0.02%      0.02% |       14829     49.99%     50.02% |       14826     49.98%    100.00% (Unspecified)
board.cache_hierarchy.ruby_system.L1Cache_Controller.M.Fwd_GETX::total        29661                       (Unspecified)
board.cache_hierarchy.ruby_system.L1Cache_Controller.M.Fwd_GETS |         378     96.92%     96.92% |           4      1.03%     97.95% |           8      2.05%    100.00% (Unspecified)
board.cache_hierarchy.ruby_system.L1Cache_Controller.M.Fwd_GETS::total          390                       (Unspecified)
board.cache_hierarchy.ruby_system.L1Cache_Controller.IS.Data_Exclusive |          50      2.82%      2.82% |        1710     96.34%     99.15% |          15      0.85%    100.00% (Unspecified)
board.cache_hierarchy.ruby_system.L1Cache_Controller.IS.Data_Exclusive::total         1775                       (Unspecified)
board.cache_hierarchy.ruby_system.L1Cache_Controller.IS.DataS_fromL1 |           5      0.24%      0.24% |         380     18.12%     18.36% |        1712     81.64%    100.00% (Unspecified)
board.cache_hierarchy.ruby_system.L1Cache_Controller.IS.DataS_fromL1::total         2097                       (Unspecified)
board.cache_hierarchy.ruby_system.L1Cache_Controller.IS.Data_all_Acks |         291     27.87%     27.87% |         196     18.77%     46.65% |         557     53.35%    100.00% (Unspecified)
board.cache_hierarchy.ruby_system.L1Cache_Controller.IS.Data_all_Acks::total         1044                       (Unspecified)
board.cache_hierarchy.ruby_system.L1Cache_Controller.IM.Data_all_Acks |          68      0.23%      0.23% |       14886     49.88%     50.11% |       14887     49.89%    100.00% (Unspecified)
board.cache_hierarchy.ruby_system.L1Cache_Controller.IM.Data_all_Acks::total        29841                       (Unspecified)
board.cache_hierarchy.ruby_system.L1Cache_Controller.SM.Inv |           0      0.00%      0.00% |           2     40.00%     40.00% |           3     60.00%    100.00% (Unspecified)
board.cache_hierarchy.ruby_system.L1Cache_Controller.SM.Inv::total            5                       (Unspecified)
board.cache_hierarchy.ruby_system.L1Cache_Controller.SM.Ack |           5     17.24%     17.24% |          13     44.83%     62.07% |          11     37.93%    100.00% (Unspecified)
board.cache_hierarchy.ruby_system.L1Cache_Controller.SM.Ack::total           29                       (Unspecified)
board.cache_hierarchy.ruby_system.L1Cache_Controller.SM.Ack_all |           4     16.67%     16.67% |          11     45.83%     62.50% |           9     37.50%    100.00% (Unspecified)
board.cache_hierarchy.ruby_system.L1Cache_Controller.SM.Ack_all::total           24                       (Unspecified)
board.cache_hierarchy.ruby_system.L1Cache_Controller.M_I.WB_Ack |         114     80.85%     80.85% |          13      9.22%     90.07% |          14      9.93%    100.00% (Unspecified)
board.cache_hierarchy.ruby_system.L1Cache_Controller.M_I.WB_Ack::total          141                       (Unspecified)
board.cache_hierarchy.ruby_system.L2Cache_Controller.L1_GET_INSTR |         343     51.12%     51.12% |         328     48.88%    100.00% (Unspecified)
board.cache_hierarchy.ruby_system.L2Cache_Controller.L1_GET_INSTR::total          671                       (Unspecified)
board.cache_hierarchy.ruby_system.L2Cache_Controller.L1_GETS |        2132     49.35%     49.35% |        2188     50.65%    100.00% (Unspecified)
board.cache_hierarchy.ruby_system.L2Cache_Controller.L1_GETS::total         4320                       (Unspecified)
board.cache_hierarchy.ruby_system.L2Cache_Controller.L1_GETX |       31891     99.69%     99.69% |          98      0.31%    100.00% (Unspecified)
board.cache_hierarchy.ruby_system.L2Cache_Controller.L1_GETX::total        31989                       (Unspecified)
board.cache_hierarchy.ruby_system.L2Cache_Controller.L1_UPGRADE |          15     51.72%     51.72% |          14     48.28%    100.00% (Unspecified)
board.cache_hierarchy.ruby_system.L2Cache_Controller.L1_UPGRADE::total           29                       (Unspecified)
board.cache_hierarchy.ruby_system.L2Cache_Controller.L1_PUTX |          73     51.77%     51.77% |          68     48.23%    100.00% (Unspecified)
board.cache_hierarchy.ruby_system.L2Cache_Controller.L1_PUTX::total          141                       (Unspecified)
board.cache_hierarchy.ruby_system.L2Cache_Controller.Mem_Data |         269     50.09%     50.09% |         268     49.91%    100.00% (Unspecified)
board.cache_hierarchy.ruby_system.L2Cache_Controller.Mem_Data::total          537                       (Unspecified)
board.cache_hierarchy.ruby_system.L2Cache_Controller.WB_Data |         192     49.23%     49.23% |         198     50.77%    100.00% (Unspecified)
board.cache_hierarchy.ruby_system.L2Cache_Controller.WB_Data::total          390                       (Unspecified)
board.cache_hierarchy.ruby_system.L2Cache_Controller.WB_Data_clean |         857     50.21%     50.21% |         850     49.79%    100.00% (Unspecified)
board.cache_hierarchy.ruby_system.L2Cache_Controller.WB_Data_clean::total         1707                       (Unspecified)
board.cache_hierarchy.ruby_system.L2Cache_Controller.Unblock |        1049     50.02%     50.02% |        1048     49.98%    100.00% (Unspecified)
board.cache_hierarchy.ruby_system.L2Cache_Controller.Unblock::total         2097                       (Unspecified)
board.cache_hierarchy.ruby_system.L2Cache_Controller.Exclusive_Unblock |       30651     96.87%     96.87% |         989      3.13%    100.00% (Unspecified)
board.cache_hierarchy.ruby_system.L2Cache_Controller.Exclusive_Unblock::total        31640                       (Unspecified)
board.cache_hierarchy.ruby_system.L2Cache_Controller.NP.L1_GET_INSTR |         178     50.14%     50.14% |         177     49.86%    100.00% (Unspecified)
board.cache_hierarchy.ruby_system.L2Cache_Controller.NP.L1_GET_INSTR::total          355                       (Unspecified)
board.cache_hierarchy.ruby_system.L2Cache_Controller.NP.L1_GETS |          10     52.63%     52.63% |           9     47.37%    100.00% (Unspecified)
board.cache_hierarchy.ruby_system.L2Cache_Controller.NP.L1_GETS::total           19                       (Unspecified)
board.cache_hierarchy.ruby_system.L2Cache_Controller.NP.L1_GETX |          81     49.69%     49.69% |          82     50.31%    100.00% (Unspecified)
board.cache_hierarchy.ruby_system.L2Cache_Controller.NP.L1_GETX::total          163                       (Unspecified)
board.cache_hierarchy.ruby_system.L2Cache_Controller.SS.L1_GET_INSTR |         128     52.89%     52.89% |         114     47.11%    100.00% (Unspecified)
board.cache_hierarchy.ruby_system.L2Cache_Controller.SS.L1_GET_INSTR::total          242                       (Unspecified)
board.cache_hierarchy.ruby_system.L2Cache_Controller.SS.L1_GETS |         184     49.33%     49.33% |         189     50.67%    100.00% (Unspecified)
board.cache_hierarchy.ruby_system.L2Cache_Controller.SS.L1_GETS::total          373                       (Unspecified)
board.cache_hierarchy.ruby_system.L2Cache_Controller.SS.L1_UPGRADE |          12     50.00%     50.00% |          12     50.00%    100.00% (Unspecified)
board.cache_hierarchy.ruby_system.L2Cache_Controller.SS.L1_UPGRADE::total           24                       (Unspecified)
board.cache_hierarchy.ruby_system.L2Cache_Controller.M.L1_GETS |         886     50.46%     50.46% |         870     49.54%    100.00% (Unspecified)
board.cache_hierarchy.ruby_system.L2Cache_Controller.M.L1_GETS::total         1756                       (Unspecified)
board.cache_hierarchy.ruby_system.L2Cache_Controller.M.L1_GETX |           8     47.06%     47.06% |           9     52.94%    100.00% (Unspecified)
board.cache_hierarchy.ruby_system.L2Cache_Controller.M.L1_GETX::total           17                       (Unspecified)
board.cache_hierarchy.ruby_system.L2Cache_Controller.MT.L1_GETS |        1049     50.02%     50.02% |        1048     49.98%    100.00% (Unspecified)
board.cache_hierarchy.ruby_system.L2Cache_Controller.MT.L1_GETS::total         2097                       (Unspecified)
board.cache_hierarchy.ruby_system.L2Cache_Controller.MT.L1_GETX |       29654     99.98%     99.98% |           7      0.02%    100.00% (Unspecified)
board.cache_hierarchy.ruby_system.L2Cache_Controller.MT.L1_GETX::total        29661                       (Unspecified)
board.cache_hierarchy.ruby_system.L2Cache_Controller.MT.L1_PUTX |          73     51.77%     51.77% |          68     48.23%    100.00% (Unspecified)
board.cache_hierarchy.ruby_system.L2Cache_Controller.MT.L1_PUTX::total          141                       (Unspecified)
board.cache_hierarchy.ruby_system.L2Cache_Controller.ISS.Mem_Data |          10     52.63%     52.63% |           9     47.37%    100.00% (Unspecified)
board.cache_hierarchy.ruby_system.L2Cache_Controller.ISS.Mem_Data::total           19                       (Unspecified)
board.cache_hierarchy.ruby_system.L2Cache_Controller.IS.L1_GET_INSTR |          37     50.00%     50.00% |          37     50.00%    100.00% (Unspecified)
board.cache_hierarchy.ruby_system.L2Cache_Controller.IS.L1_GET_INSTR::total           74                       (Unspecified)
board.cache_hierarchy.ruby_system.L2Cache_Controller.IS.Mem_Data |         178     50.14%     50.14% |         177     49.86%    100.00% (Unspecified)
board.cache_hierarchy.ruby_system.L2Cache_Controller.IS.Mem_Data::total          355                       (Unspecified)
board.cache_hierarchy.ruby_system.L2Cache_Controller.IM.Mem_Data |          81     49.69%     49.69% |          82     50.31%    100.00% (Unspecified)
board.cache_hierarchy.ruby_system.L2Cache_Controller.IM.Mem_Data::total          163                       (Unspecified)
board.cache_hierarchy.ruby_system.L2Cache_Controller.SS_MB.L1_GETS |           1    100.00%    100.00% |           0      0.00%    100.00% (Unspecified)
board.cache_hierarchy.ruby_system.L2Cache_Controller.SS_MB.L1_GETS::total            1                       (Unspecified)
board.cache_hierarchy.ruby_system.L2Cache_Controller.SS_MB.L1_UPGRADE |           3     60.00%     60.00% |           2     40.00%    100.00% (Unspecified)
board.cache_hierarchy.ruby_system.L2Cache_Controller.SS_MB.L1_UPGRADE::total            5                       (Unspecified)
board.cache_hierarchy.ruby_system.L2Cache_Controller.SS_MB.Exclusive_Unblock |          12     50.00%     50.00% |          12     50.00%    100.00% (Unspecified)
board.cache_hierarchy.ruby_system.L2Cache_Controller.SS_MB.Exclusive_Unblock::total           24                       (Unspecified)
board.cache_hierarchy.ruby_system.L2Cache_Controller.MT_MB.L1_GETS |           0      0.00%      0.00% |           4    100.00%    100.00% (Unspecified)
board.cache_hierarchy.ruby_system.L2Cache_Controller.MT_MB.L1_GETS::total            4                       (Unspecified)
board.cache_hierarchy.ruby_system.L2Cache_Controller.MT_MB.L1_GETX |        2148    100.00%    100.00% |           0      0.00%    100.00% (Unspecified)
board.cache_hierarchy.ruby_system.L2Cache_Controller.MT_MB.L1_GETX::total         2148                       (Unspecified)
board.cache_hierarchy.ruby_system.L2Cache_Controller.MT_MB.Exclusive_Unblock |       30639     96.91%     96.91% |         977      3.09%    100.00% (Unspecified)
board.cache_hierarchy.ruby_system.L2Cache_Controller.MT_MB.Exclusive_Unblock::total        31616                       (Unspecified)
board.cache_hierarchy.ruby_system.L2Cache_Controller.MT_IIB.L1_GETS |           2     50.00%     50.00% |           2     50.00%    100.00% (Unspecified)
board.cache_hierarchy.ruby_system.L2Cache_Controller.MT_IIB.L1_GETS::total            4                       (Unspecified)
board.cache_hierarchy.ruby_system.L2Cache_Controller.MT_IIB.WB_Data |         189     49.09%     49.09% |         196     50.91%    100.00% (Unspecified)
board.cache_hierarchy.ruby_system.L2Cache_Controller.MT_IIB.WB_Data::total          385                       (Unspecified)
board.cache_hierarchy.ruby_system.L2Cache_Controller.MT_IIB.WB_Data_clean |         857     50.21%     50.21% |         850     49.79%    100.00% (Unspecified)
board.cache_hierarchy.ruby_system.L2Cache_Controller.MT_IIB.WB_Data_clean::total         1707                       (Unspecified)
board.cache_hierarchy.ruby_system.L2Cache_Controller.MT_IIB.Unblock |           3     60.00%     60.00% |           2     40.00%    100.00% (Unspecified)
board.cache_hierarchy.ruby_system.L2Cache_Controller.MT_IIB.Unblock::total            5                       (Unspecified)
board.cache_hierarchy.ruby_system.L2Cache_Controller.MT_IB.WB_Data |           3     60.00%     60.00% |           2     40.00%    100.00% (Unspecified)
board.cache_hierarchy.ruby_system.L2Cache_Controller.MT_IB.WB_Data::total            5                       (Unspecified)
board.cache_hierarchy.ruby_system.L2Cache_Controller.MT_SB.L1_GETS |           0      0.00%      0.00% |          66    100.00%    100.00% (Unspecified)
board.cache_hierarchy.ruby_system.L2Cache_Controller.MT_SB.L1_GETS::total           66                       (Unspecified)
board.cache_hierarchy.ruby_system.L2Cache_Controller.MT_SB.Unblock |        1046     50.00%     50.00% |        1046     50.00%    100.00% (Unspecified)
board.cache_hierarchy.ruby_system.L2Cache_Controller.MT_SB.Unblock::total         2092                       (Unspecified)
board.cache_hierarchy.ruby_system.RequestType.LD.latency_hist_seqr::bucket_size           32                       (Unspecified)
board.cache_hierarchy.ruby_system.RequestType.LD.latency_hist_seqr::max_bucket          319                       (Unspecified)
board.cache_hierarchy.ruby_system.RequestType.LD.latency_hist_seqr::samples       232418                       (Unspecified)
board.cache_hierarchy.ruby_system.RequestType.LD.latency_hist_seqr::mean     1.882698                       (Unspecified)
board.cache_hierarchy.ruby_system.RequestType.LD.latency_hist_seqr::gmean     1.070506                       (Unspecified)
board.cache_hierarchy.ruby_system.RequestType.LD.latency_hist_seqr::stdev     7.240431                       (Unspecified)
board.cache_hierarchy.ruby_system.RequestType.LD.latency_hist_seqr |      229158     98.60%     98.60% |        1529      0.66%     99.26% |        1711      0.74%     99.99% |           1      0.00%     99.99% |           1      0.00%     99.99% |           2      0.00%     99.99% |           5      0.00%    100.00% |           6      0.00%    100.00% |           2      0.00%    100.00% |           3      0.00%    100.00% (Unspecified)
board.cache_hierarchy.ruby_system.RequestType.LD.latency_hist_seqr::total       232418                       (Unspecified)
board.cache_hierarchy.ruby_system.RequestType.LD.hit_latency_hist_seqr::bucket_size            1                       (Unspecified)
board.cache_hierarchy.ruby_system.RequestType.LD.hit_latency_hist_seqr::max_bucket            9                       (Unspecified)
board.cache_hierarchy.ruby_system.RequestType.LD.hit_latency_hist_seqr::samples       228173                       (Unspecified)
board.cache_hierarchy.ruby_system.RequestType.LD.hit_latency_hist_seqr::mean     1.000009                       (Unspecified)
board.cache_hierarchy.ruby_system.RequestType.LD.hit_latency_hist_seqr::gmean     1.000006                       (Unspecified)
board.cache_hierarchy.ruby_system.RequestType.LD.hit_latency_hist_seqr::stdev     0.002961                       (Unspecified)
board.cache_hierarchy.ruby_system.RequestType.LD.hit_latency_hist_seqr |           0      0.00%      0.00% |      228171    100.00%    100.00% |           2      0.00%    100.00% |           0      0.00%    100.00% |           0      0.00%    100.00% |           0      0.00%    100.00% |           0      0.00%    100.00% |           0      0.00%    100.00% |           0      0.00%    100.00% |           0      0.00%    100.00% (Unspecified)
board.cache_hierarchy.ruby_system.RequestType.LD.hit_latency_hist_seqr::total       228173                       (Unspecified)
board.cache_hierarchy.ruby_system.RequestType.LD.miss_latency_hist_seqr::bucket_size           32                       (Unspecified)
board.cache_hierarchy.ruby_system.RequestType.LD.miss_latency_hist_seqr::max_bucket          319                       (Unspecified)
board.cache_hierarchy.ruby_system.RequestType.LD.miss_latency_hist_seqr::samples         4245                       (Unspecified)
board.cache_hierarchy.ruby_system.RequestType.LD.miss_latency_hist_seqr::mean    49.328151                       (Unspecified)
board.cache_hierarchy.ruby_system.RequestType.LD.miss_latency_hist_seqr::gmean    41.676684                       (Unspecified)
board.cache_hierarchy.ruby_system.RequestType.LD.miss_latency_hist_seqr::stdev    24.029788                       (Unspecified)
board.cache_hierarchy.ruby_system.RequestType.LD.miss_latency_hist_seqr |         985     23.20%     23.20% |        1529     36.02%     59.22% |        1711     40.31%     99.53% |           1      0.02%     99.55% |           1      0.02%     99.58% |           2      0.05%     99.62% |           5      0.12%     99.74% |           6      0.14%     99.88% |           2      0.05%     99.93% |           3      0.07%    100.00% (Unspecified)
board.cache_hierarchy.ruby_system.RequestType.LD.miss_latency_hist_seqr::total         4245                       (Unspecified)
board.cache_hierarchy.ruby_system.RequestType.ST.latency_hist_seqr::bucket_size          256                       (Unspecified)
board.cache_hierarchy.ruby_system.RequestType.ST.latency_hist_seqr::max_bucket         2559                       (Unspecified)
board.cache_hierarchy.ruby_system.RequestType.ST.latency_hist_seqr::samples       168173                       (Unspecified)
board.cache_hierarchy.ruby_system.RequestType.ST.latency_hist_seqr::mean     1.209160                       (Unspecified)
board.cache_hierarchy.ruby_system.RequestType.ST.latency_hist_seqr::gmean     1.006215                       (Unspecified)
board.cache_hierarchy.ruby_system.RequestType.ST.latency_hist_seqr::stdev     8.029296                       (Unspecified)
board.cache_hierarchy.ruby_system.RequestType.ST.latency_hist_seqr |      168162     99.99%     99.99% |           8      0.00%    100.00% |           0      0.00%    100.00% |           0      0.00%    100.00% |           1      0.00%    100.00% |           2      0.00%    100.00% |           0      0.00%    100.00% |           0      0.00%    100.00% |           0      0.00%    100.00% |           0      0.00%    100.00% (Unspecified)
board.cache_hierarchy.ruby_system.RequestType.ST.latency_hist_seqr::total       168173                       (Unspecified)
board.cache_hierarchy.ruby_system.RequestType.ST.hit_latency_hist_seqr::bucket_size           32                       (Unspecified)
board.cache_hierarchy.ruby_system.RequestType.ST.hit_latency_hist_seqr::max_bucket          319                       (Unspecified)
board.cache_hierarchy.ruby_system.RequestType.ST.hit_latency_hist_seqr::samples       167986                       (Unspecified)
board.cache_hierarchy.ruby_system.RequestType.ST.hit_latency_hist_seqr::mean     1.002923                       (Unspecified)
board.cache_hierarchy.ruby_system.RequestType.ST.hit_latency_hist_seqr::gmean     1.000580                       (Unspecified)
board.cache_hierarchy.ruby_system.RequestType.ST.hit_latency_hist_seqr::stdev     0.560040                       (Unspecified)
board.cache_hierarchy.ruby_system.RequestType.ST.hit_latency_hist_seqr |      167983    100.00%    100.00% |           1      0.00%    100.00% |           0      0.00%    100.00% |           0      0.00%    100.00% |           1      0.00%    100.00% |           1      0.00%    100.00% |           0      0.00%    100.00% |           0      0.00%    100.00% |           0      0.00%    100.00% |           0      0.00%    100.00% (Unspecified)
board.cache_hierarchy.ruby_system.RequestType.ST.hit_latency_hist_seqr::total       167986                       (Unspecified)
board.cache_hierarchy.ruby_system.RequestType.ST.miss_latency_hist_seqr::bucket_size          256                       (Unspecified)
board.cache_hierarchy.ruby_system.RequestType.ST.miss_latency_hist_seqr::max_bucket         2559                       (Unspecified)
board.cache_hierarchy.ruby_system.RequestType.ST.miss_latency_hist_seqr::samples          187                       (Unspecified)
board.cache_hierarchy.ruby_system.RequestType.ST.miss_latency_hist_seqr::mean   186.475936                       (Unspecified)
board.cache_hierarchy.ruby_system.RequestType.ST.miss_latency_hist_seqr::gmean   156.270578                       (Unspecified)
board.cache_hierarchy.ruby_system.RequestType.ST.miss_latency_hist_seqr::stdev   153.167289                       (Unspecified)
board.cache_hierarchy.ruby_system.RequestType.ST.miss_latency_hist_seqr |         176     94.12%     94.12% |           8      4.28%     98.40% |           0      0.00%     98.40% |           0      0.00%     98.40% |           1      0.53%     98.93% |           2      1.07%    100.00% |           0      0.00%    100.00% |           0      0.00%    100.00% |           0      0.00%    100.00% |           0      0.00%    100.00% (Unspecified)
board.cache_hierarchy.ruby_system.RequestType.ST.miss_latency_hist_seqr::total          187                       (Unspecified)
board.cache_hierarchy.ruby_system.RequestType.IFETCH.latency_hist_seqr::bucket_size          256                       (Unspecified)
board.cache_hierarchy.ruby_system.RequestType.IFETCH.latency_hist_seqr::max_bucket         2559                       (Unspecified)
board.cache_hierarchy.ruby_system.RequestType.IFETCH.latency_hist_seqr::samples       660258                       (Unspecified)
board.cache_hierarchy.ruby_system.RequestType.IFETCH.latency_hist_seqr::mean     1.134145                       (Unspecified)
board.cache_hierarchy.ruby_system.RequestType.IFETCH.latency_hist_seqr::gmean     1.004620                       (Unspecified)
board.cache_hierarchy.ruby_system.RequestType.IFETCH.latency_hist_seqr::stdev     5.257798                       (Unspecified)
board.cache_hierarchy.ruby_system.RequestType.IFETCH.latency_hist_seqr |      660244    100.00%    100.00% |          12      0.00%    100.00% |           0      0.00%    100.00% |           0      0.00%    100.00% |           1      0.00%    100.00% |           1      0.00%    100.00% |           0      0.00%    100.00% |           0      0.00%    100.00% |           0      0.00%    100.00% |           0      0.00%    100.00% (Unspecified)
board.cache_hierarchy.ruby_system.RequestType.IFETCH.latency_hist_seqr::total       660258                       (Unspecified)
board.cache_hierarchy.ruby_system.RequestType.IFETCH.hit_latency_hist_seqr::bucket_size            1                       (Unspecified)
board.cache_hierarchy.ruby_system.RequestType.IFETCH.hit_latency_hist_seqr::max_bucket            9                       (Unspecified)
board.cache_hierarchy.ruby_system.RequestType.IFETCH.hit_latency_hist_seqr::samples       659587                       (Unspecified)
board.cache_hierarchy.ruby_system.RequestType.IFETCH.hit_latency_hist_seqr::mean            1                       (Unspecified)
board.cache_hierarchy.ruby_system.RequestType.IFETCH.hit_latency_hist_seqr::gmean            1                       (Unspecified)
board.cache_hierarchy.ruby_system.RequestType.IFETCH.hit_latency_hist_seqr |           0      0.00%      0.00% |      659587    100.00%    100.00% |           0      0.00%    100.00% |           0      0.00%    100.00% |           0      0.00%    100.00% |           0      0.00%    100.00% |           0      0.00%    100.00% |           0      0.00%    100.00% |           0      0.00%    100.00% |           0      0.00%    100.00% (Unspecified)
board.cache_hierarchy.ruby_system.RequestType.IFETCH.hit_latency_hist_seqr::total       659587                       (Unspecified)
board.cache_hierarchy.ruby_system.RequestType.IFETCH.miss_latency_hist_seqr::bucket_size          256                       (Unspecified)
board.cache_hierarchy.ruby_system.RequestType.IFETCH.miss_latency_hist_seqr::max_bucket         2559                       (Unspecified)
board.cache_hierarchy.ruby_system.RequestType.IFETCH.miss_latency_hist_seqr::samples          671                       (Unspecified)
board.cache_hierarchy.ruby_system.RequestType.IFETCH.miss_latency_hist_seqr::mean   132.997019                       (Unspecified)
board.cache_hierarchy.ruby_system.RequestType.IFETCH.miss_latency_hist_seqr::gmean    93.262402                       (Unspecified)
board.cache_hierarchy.ruby_system.RequestType.IFETCH.miss_latency_hist_seqr::stdev    99.050266                       (Unspecified)
board.cache_hierarchy.ruby_system.RequestType.IFETCH.miss_latency_hist_seqr |         657     97.91%     97.91% |          12      1.79%     99.70% |           0      0.00%     99.70% |           0      0.00%     99.70% |           1      0.15%     99.85% |           1      0.15%    100.00% |           0      0.00%    100.00% |           0      0.00%    100.00% |           0      0.00%    100.00% |           0      0.00%    100.00% (Unspecified)
board.cache_hierarchy.ruby_system.RequestType.IFETCH.miss_latency_hist_seqr::total          671                       (Unspecified)
board.cache_hierarchy.ruby_system.RequestType.RMW_Read.latency_hist_seqr::bucket_size           32                       (Unspecified)
board.cache_hierarchy.ruby_system.RequestType.RMW_Read.latency_hist_seqr::max_bucket          319                       (Unspecified)
board.cache_hierarchy.ruby_system.RequestType.RMW_Read.latency_hist_seqr::samples           59                       (Unspecified)
board.cache_hierarchy.ruby_system.RequestType.RMW_Read.latency_hist_seqr::mean    16.813559                       (Unspecified)
board.cache_hierarchy.ruby_system.RequestType.RMW_Read.latency_hist_seqr::gmean     1.642459                       (Unspecified)
board.cache_hierarchy.ruby_system.RequestType.RMW_Read.latency_hist_seqr::stdev    57.945716                       (Unspecified)
board.cache_hierarchy.ruby_system.RequestType.RMW_Read.latency_hist_seqr |          54     91.53%     91.53% |           1      1.69%     93.22% |           0      0.00%     93.22% |           0      0.00%     93.22% |           0      0.00%     93.22% |           2      3.39%     96.61% |           0      0.00%     96.61% |           0      0.00%     96.61% |           2      3.39%    100.00% |           0      0.00%    100.00% (Unspecified)
board.cache_hierarchy.ruby_system.RequestType.RMW_Read.latency_hist_seqr::total           59                       (Unspecified)
board.cache_hierarchy.ruby_system.RequestType.RMW_Read.hit_latency_hist_seqr::bucket_size            1                       (Unspecified)
board.cache_hierarchy.ruby_system.RequestType.RMW_Read.hit_latency_hist_seqr::max_bucket            9                       (Unspecified)
board.cache_hierarchy.ruby_system.RequestType.RMW_Read.hit_latency_hist_seqr::samples           54                       (Unspecified)
board.cache_hierarchy.ruby_system.RequestType.RMW_Read.hit_latency_hist_seqr::mean     1.111111                       (Unspecified)
board.cache_hierarchy.ruby_system.RequestType.RMW_Read.hit_latency_hist_seqr::gmean     1.080060                       (Unspecified)
board.cache_hierarchy.ruby_system.RequestType.RMW_Read.hit_latency_hist_seqr::stdev     0.317221                       (Unspecified)
board.cache_hierarchy.ruby_system.RequestType.RMW_Read.hit_latency_hist_seqr |           0      0.00%      0.00% |          48     88.89%     88.89% |           6     11.11%    100.00% |           0      0.00%    100.00% |           0      0.00%    100.00% |           0      0.00%    100.00% |           0      0.00%    100.00% |           0      0.00%    100.00% |           0      0.00%    100.00% |           0      0.00%    100.00% (Unspecified)
board.cache_hierarchy.ruby_system.RequestType.RMW_Read.hit_latency_hist_seqr::total           54                       (Unspecified)
board.cache_hierarchy.ruby_system.RequestType.RMW_Read.miss_latency_hist_seqr::bucket_size           32                       (Unspecified)
board.cache_hierarchy.ruby_system.RequestType.RMW_Read.miss_latency_hist_seqr::max_bucket          319                       (Unspecified)
board.cache_hierarchy.ruby_system.RequestType.RMW_Read.miss_latency_hist_seqr::samples            5                       (Unspecified)
board.cache_hierarchy.ruby_system.RequestType.RMW_Read.miss_latency_hist_seqr::mean   186.400000                       (Unspecified)
board.cache_hierarchy.ruby_system.RequestType.RMW_Read.miss_latency_hist_seqr::gmean   151.914271                       (Unspecified)
board.cache_hierarchy.ruby_system.RequestType.RMW_Read.miss_latency_hist_seqr::stdev    96.991237                       (Unspecified)
board.cache_hierarchy.ruby_system.RequestType.RMW_Read.miss_latency_hist_seqr |           0      0.00%      0.00% |           1     20.00%     20.00% |           0      0.00%     20.00% |           0      0.00%     20.00% |           0      0.00%     20.00% |           2     40.00%     60.00% |           0      0.00%     60.00% |           0      0.00%     60.00% |           2     40.00%    100.00% |           0      0.00%    100.00% (Unspecified)
board.cache_hierarchy.ruby_system.RequestType.RMW_Read.miss_latency_hist_seqr::total            5                       (Unspecified)
board.cache_hierarchy.ruby_system.RequestType.Locked_RMW_Read.latency_hist_seqr::bucket_size           16                       (Unspecified)
board.cache_hierarchy.ruby_system.RequestType.Locked_RMW_Read.latency_hist_seqr::max_bucket          159                       (Unspecified)
board.cache_hierarchy.ruby_system.RequestType.Locked_RMW_Read.latency_hist_seqr::samples        32868                       (Unspecified)
board.cache_hierarchy.ruby_system.RequestType.Locked_RMW_Read.latency_hist_seqr::mean    59.533954                       (Unspecified)
board.cache_hierarchy.ruby_system.RequestType.Locked_RMW_Read.latency_hist_seqr::gmean    43.604725                       (Unspecified)
board.cache_hierarchy.ruby_system.RequestType.Locked_RMW_Read.latency_hist_seqr::stdev    20.698103                       (Unspecified)
board.cache_hierarchy.ruby_system.RequestType.Locked_RMW_Read.latency_hist_seqr |        3197      9.73%      9.73% |           0      0.00%      9.73% |           6      0.02%      9.75% |           6      0.02%      9.76% |       28682     87.26%     97.03% |         103      0.31%     97.34% |         609      1.85%     99.19% |         265      0.81%    100.00% |           0      0.00%    100.00% |           0      0.00%    100.00% (Unspecified)
board.cache_hierarchy.ruby_system.RequestType.Locked_RMW_Read.latency_hist_seqr::total        32868                       (Unspecified)
board.cache_hierarchy.ruby_system.RequestType.Locked_RMW_Read.hit_latency_hist_seqr::bucket_size            1                       (Unspecified)
board.cache_hierarchy.ruby_system.RequestType.Locked_RMW_Read.hit_latency_hist_seqr::max_bucket            9                       (Unspecified)
board.cache_hierarchy.ruby_system.RequestType.Locked_RMW_Read.hit_latency_hist_seqr::samples         3195                       (Unspecified)
board.cache_hierarchy.ruby_system.RequestType.Locked_RMW_Read.hit_latency_hist_seqr::mean            1                       (Unspecified)
board.cache_hierarchy.ruby_system.RequestType.Locked_RMW_Read.hit_latency_hist_seqr::gmean            1                       (Unspecified)
board.cache_hierarchy.ruby_system.RequestType.Locked_RMW_Read.hit_latency_hist_seqr |           0      0.00%      0.00% |        3195    100.00%    100.00% |           0      0.00%    100.00% |           0      0.00%    100.00% |           0      0.00%    100.00% |           0      0.00%    100.00% |           0      0.00%    100.00% |           0      0.00%    100.00% |           0      0.00%    100.00% |           0      0.00%    100.00% (Unspecified)
board.cache_hierarchy.ruby_system.RequestType.Locked_RMW_Read.hit_latency_hist_seqr::total         3195                       (Unspecified)
board.cache_hierarchy.ruby_system.RequestType.Locked_RMW_Read.miss_latency_hist_seqr::bucket_size           16                       (Unspecified)
board.cache_hierarchy.ruby_system.RequestType.Locked_RMW_Read.miss_latency_hist_seqr::max_bucket          159                       (Unspecified)
board.cache_hierarchy.ruby_system.RequestType.Locked_RMW_Read.miss_latency_hist_seqr::samples        29673                       (Unspecified)
board.cache_hierarchy.ruby_system.RequestType.Locked_RMW_Read.miss_latency_hist_seqr::mean    65.836518                       (Unspecified)
board.cache_hierarchy.ruby_system.RequestType.Locked_RMW_Read.miss_latency_hist_seqr::gmean    65.473883                       (Unspecified)
board.cache_hierarchy.ruby_system.RequestType.Locked_RMW_Read.miss_latency_hist_seqr::stdev     8.117361                       (Unspecified)
board.cache_hierarchy.ruby_system.RequestType.Locked_RMW_Read.miss_latency_hist_seqr |           2      0.01%      0.01% |           0      0.00%      0.01% |           6      0.02%      0.03% |           6      0.02%      0.05% |       28682     96.66%     96.71% |         103      0.35%     97.05% |         609      2.05%     99.11% |         265      0.89%    100.00% |           0      0.00%    100.00% |           0      0.00%    100.00% (Unspecified)
board.cache_hierarchy.ruby_system.RequestType.Locked_RMW_Read.miss_latency_hist_seqr::total        29673                       (Unspecified)
board.cache_hierarchy.ruby_system.RequestType.Locked_RMW_Write.latency_hist_seqr::bucket_size            1                       (Unspecified)
board.cache_hierarchy.ruby_system.RequestType.Locked_RMW_Write.latency_hist_seqr::max_bucket            9                       (Unspecified)
board.cache_hierarchy.ruby_system.RequestType.Locked_RMW_Write.latency_hist_seqr::samples        32868                       (Unspecified)
board.cache_hierarchy.ruby_system.RequestType.Locked_RMW_Write.latency_hist_seqr::mean            1                       (Unspecified)
board.cache_hierarchy.ruby_system.RequestType.Locked_RMW_Write.latency_hist_seqr::gmean            1                       (Unspecified)
board.cache_hierarchy.ruby_system.RequestType.Locked_RMW_Write.latency_hist_seqr |           0      0.00%      0.00% |       32868    100.00%    100.00% |           0      0.00%    100.00% |           0      0.00%    100.00% |           0      0.00%    100.00% |           0      0.00%    100.00% |           0      0.00%    100.00% |           0      0.00%    100.00% |           0      0.00%    100.00% |           0      0.00%    100.00% (Unspecified)
board.cache_hierarchy.ruby_system.RequestType.Locked_RMW_Write.latency_hist_seqr::total        32868                       (Unspecified)
board.cache_hierarchy.ruby_system.RequestType.Locked_RMW_Write.hit_latency_hist_seqr::bucket_size            1                       (Unspecified)
board.cache_hierarchy.ruby_system.RequestType.Locked_RMW_Write.hit_latency_hist_seqr::max_bucket            9                       (Unspecified)
board.cache_hierarchy.ruby_system.RequestType.Locked_RMW_Write.hit_latency_hist_seqr::samples        32868                       (Unspecified)
board.cache_hierarchy.ruby_system.RequestType.Locked_RMW_Write.hit_latency_hist_seqr::mean            1                       (Unspecified)
board.cache_hierarchy.ruby_system.RequestType.Locked_RMW_Write.hit_latency_hist_seqr::gmean            1                       (Unspecified)
board.cache_hierarchy.ruby_system.RequestType.Locked_RMW_Write.hit_latency_hist_seqr |           0      0.00%      0.00% |       32868    100.00%    100.00% |           0      0.00%    100.00% |           0      0.00%    100.00% |           0      0.00%    100.00% |           0      0.00%    100.00% |           0      0.00%    100.00% |           0      0.00%    100.00% |           0      0.00%    100.00% |           0      0.00%    100.00% (Unspecified)
board.cache_hierarchy.ruby_system.RequestType.Locked_RMW_Write.hit_latency_hist_seqr::total        32868                       (Unspecified)
board.cache_hierarchy.ruby_system.directory_controllers.power_state.pwrStateResidencyTicks::UNDEFINED   1034236395                       # Cumulative time (in ticks) in various power states (Tick)
board.cache_hierarchy.ruby_system.directory_controllers.requestToDir.m_msg_count          537                       # Number of messages passed the buffer (Count)
board.cache_hierarchy.ruby_system.directory_controllers.requestToDir.m_buf_msgs     0.000230                       # Average number of messages in buffer ((Count/Tick))
board.cache_hierarchy.ruby_system.directory_controllers.requestToMemory.m_msg_count          537                       # Number of messages passed the buffer (Count)
board.cache_hierarchy.ruby_system.directory_controllers.requestToMemory.m_buf_msgs     0.000231                       # Average number of messages in buffer ((Count/Tick))
board.cache_hierarchy.ruby_system.directory_controllers.requestToMemory.m_stall_time         1332                       # Total number of ticks messages were stalled in this buffer (Tick)
board.cache_hierarchy.ruby_system.directory_controllers.requestToMemory.m_avg_stall_time     2.480447                       # Average stall ticks per message ((Tick/Count))
board.cache_hierarchy.ruby_system.directory_controllers.responseFromDir.m_msg_count          537                       # Number of messages passed the buffer (Count)
board.cache_hierarchy.ruby_system.directory_controllers.responseFromDir.m_buf_msgs     0.000230                       # Average number of messages in buffer ((Count/Tick))
board.cache_hierarchy.ruby_system.directory_controllers.responseFromMemory.m_msg_count          537                       # Number of messages passed the buffer (Count)
board.cache_hierarchy.ruby_system.directory_controllers.responseFromMemory.m_buf_msgs     0.000339                       # Average number of messages in buffer ((Count/Tick))
board.cache_hierarchy.ruby_system.l1_controllers0.fullyBusyCycles           27                       # cycles for which number of transistions == max transitions (Unspecified)
board.cache_hierarchy.ruby_system.l1_controllers0.delayHistogram::samples          943                       # delay_histogram (Unspecified)
board.cache_hierarchy.ruby_system.l1_controllers0.delayHistogram::mean     0.146341                       # delay_histogram (Unspecified)
board.cache_hierarchy.ruby_system.l1_controllers0.delayHistogram::stdev     1.021949                       # delay_histogram (Unspecified)
board.cache_hierarchy.ruby_system.l1_controllers0.delayHistogram::0-1          922     97.77%     97.77% # delay_histogram (Unspecified)
board.cache_hierarchy.ruby_system.l1_controllers0.delayHistogram::2-3            2      0.21%     97.99% # delay_histogram (Unspecified)
board.cache_hierarchy.ruby_system.l1_controllers0.delayHistogram::4-5            3      0.32%     98.30% # delay_histogram (Unspecified)
board.cache_hierarchy.ruby_system.l1_controllers0.delayHistogram::6-7            4      0.42%     98.73% # delay_histogram (Unspecified)
board.cache_hierarchy.ruby_system.l1_controllers0.delayHistogram::8-9           11      1.17%     99.89% # delay_histogram (Unspecified)
board.cache_hierarchy.ruby_system.l1_controllers0.delayHistogram::10-11            1      0.11%    100.00% # delay_histogram (Unspecified)
board.cache_hierarchy.ruby_system.l1_controllers0.delayHistogram::total          943                       # delay_histogram (Unspecified)
board.cache_hierarchy.ruby_system.l1_controllers0.L1Dcache.m_demand_hits         4907                       # Number of cache demand hits (Unspecified)
board.cache_hierarchy.ruby_system.l1_controllers0.L1Dcache.m_demand_misses          129                       # Number of cache demand misses (Unspecified)
board.cache_hierarchy.ruby_system.l1_controllers0.L1Dcache.m_demand_accesses         5036                       # Number of cache demand accesses (Unspecified)
board.cache_hierarchy.ruby_system.l1_controllers0.L1Icache.m_demand_hits         2924                       # Number of cache demand hits (Unspecified)
board.cache_hierarchy.ruby_system.l1_controllers0.L1Icache.m_demand_misses          289                       # Number of cache demand misses (Unspecified)
board.cache_hierarchy.ruby_system.l1_controllers0.L1Icache.m_demand_accesses         3213                       # Number of cache demand accesses (Unspecified)
board.cache_hierarchy.ruby_system.l1_controllers0.mandatoryQueue.m_msg_count         8249                       # Number of messages passed the buffer (Count)
board.cache_hierarchy.ruby_system.l1_controllers0.mandatoryQueue.m_buf_msgs     0.003529                       # Average number of messages in buffer ((Count/Tick))
board.cache_hierarchy.ruby_system.l1_controllers0.mandatoryQueue.m_stall_time          999                       # Total number of ticks messages were stalled in this buffer (Tick)
board.cache_hierarchy.ruby_system.l1_controllers0.mandatoryQueue.m_avg_stall_time     0.121106                       # Average stall ticks per message ((Tick/Count))
board.cache_hierarchy.ruby_system.l1_controllers0.power_state.pwrStateResidencyTicks::UNDEFINED   1034236395                       # Cumulative time (in ticks) in various power states (Tick)
board.cache_hierarchy.ruby_system.l1_controllers0.prefetcher.RubyPrefetcher.numMissObserved            0                       # Number of misses observed (Unspecified)
board.cache_hierarchy.ruby_system.l1_controllers0.prefetcher.RubyPrefetcher.numAllocatedStreams            0                       # Number of streams allocated for prefetching (Unspecified)
board.cache_hierarchy.ruby_system.l1_controllers0.prefetcher.RubyPrefetcher.numPrefetchRequested            0                       # Number of prefetch requests made (Unspecified)
board.cache_hierarchy.ruby_system.l1_controllers0.prefetcher.RubyPrefetcher.numHits            0                       # Number of prefetched blocks accessed (for the first time) (Unspecified)
board.cache_hierarchy.ruby_system.l1_controllers0.prefetcher.RubyPrefetcher.numPartialHits            0                       # Number of misses observed for a block being prefetched (Unspecified)
board.cache_hierarchy.ruby_system.l1_controllers0.prefetcher.RubyPrefetcher.numPagesCrossed            0                       # Number of prefetches across pages (Unspecified)
board.cache_hierarchy.ruby_system.l1_controllers0.prefetcher.RubyPrefetcher.numMissedPrefetchedBlocks            0                       # Number of misses for blocks that were prefetched, yet missed (Unspecified)
board.cache_hierarchy.ruby_system.l1_controllers0.requestFromL1Cache.m_msg_count          532                       # Number of messages passed the buffer (Count)
board.cache_hierarchy.ruby_system.l1_controllers0.requestFromL1Cache.m_buf_msgs     0.000455                       # Average number of messages in buffer ((Count/Tick))
board.cache_hierarchy.ruby_system.l1_controllers0.requestToL1Cache.m_msg_count          406                       # Number of messages passed the buffer (Count)
board.cache_hierarchy.ruby_system.l1_controllers0.requestToL1Cache.m_buf_msgs     0.000174                       # Average number of messages in buffer ((Count/Tick))
board.cache_hierarchy.ruby_system.l1_controllers0.responseFromL1Cache.m_msg_count          792                       # Number of messages passed the buffer (Count)
board.cache_hierarchy.ruby_system.l1_controllers0.responseFromL1Cache.m_buf_msgs     0.000677                       # Average number of messages in buffer ((Count/Tick))
board.cache_hierarchy.ruby_system.l1_controllers0.responseToL1Cache.m_msg_count          537                       # Number of messages passed the buffer (Count)
board.cache_hierarchy.ruby_system.l1_controllers0.responseToL1Cache.m_buf_msgs     0.000230                       # Average number of messages in buffer ((Count/Tick))
board.cache_hierarchy.ruby_system.l1_controllers0.sequencer.power_state.pwrStateResidencyTicks::UNDEFINED   1034236395                       # Cumulative time (in ticks) in various power states (Tick)
board.cache_hierarchy.ruby_system.l1_controllers0.unblockFromL1Cache.m_msg_count          127                       # Number of messages passed the buffer (Count)
board.cache_hierarchy.ruby_system.l1_controllers0.unblockFromL1Cache.m_buf_msgs     0.000054                       # Average number of messages in buffer ((Count/Tick))
board.cache_hierarchy.ruby_system.l1_controllers1.fullyBusyCycles            3                       # cycles for which number of transistions == max transitions (Unspecified)
board.cache_hierarchy.ruby_system.l1_controllers1.delayHistogram::samples        33747                       # delay_histogram (Unspecified)
board.cache_hierarchy.ruby_system.l1_controllers1.delayHistogram::mean     0.002548                       # delay_histogram (Unspecified)
board.cache_hierarchy.ruby_system.l1_controllers1.delayHistogram::stdev     0.154333                       # delay_histogram (Unspecified)
board.cache_hierarchy.ruby_system.l1_controllers1.delayHistogram::0-1        33732     99.96%     99.96% # delay_histogram (Unspecified)
board.cache_hierarchy.ruby_system.l1_controllers1.delayHistogram::2-3            5      0.01%     99.97% # delay_histogram (Unspecified)
board.cache_hierarchy.ruby_system.l1_controllers1.delayHistogram::4-5            4      0.01%     99.98% # delay_histogram (Unspecified)
board.cache_hierarchy.ruby_system.l1_controllers1.delayHistogram::6-7            2      0.01%     99.99% # delay_histogram (Unspecified)
board.cache_hierarchy.ruby_system.l1_controllers1.delayHistogram::8-9            2      0.01%     99.99% # delay_histogram (Unspecified)
board.cache_hierarchy.ruby_system.l1_controllers1.delayHistogram::14-15            1      0.00%    100.00% # delay_histogram (Unspecified)
board.cache_hierarchy.ruby_system.l1_controllers1.delayHistogram::18-19            1      0.00%    100.00% # delay_histogram (Unspecified)
board.cache_hierarchy.ruby_system.l1_controllers1.delayHistogram::total        33747                       # delay_histogram (Unspecified)
board.cache_hierarchy.ruby_system.l1_controllers1.L1Dcache.m_demand_hits       213693                       # Number of cache demand hits (Unspecified)
board.cache_hierarchy.ruby_system.l1_controllers1.L1Dcache.m_demand_misses        16993                       # Number of cache demand misses (Unspecified)
board.cache_hierarchy.ruby_system.l1_controllers1.L1Dcache.m_demand_accesses       230686                       # Number of cache demand accesses (Unspecified)
board.cache_hierarchy.ruby_system.l1_controllers1.L1Icache.m_demand_hits       328265                       # Number of cache demand hits (Unspecified)
board.cache_hierarchy.ruby_system.l1_controllers1.L1Icache.m_demand_misses          190                       # Number of cache demand misses (Unspecified)
board.cache_hierarchy.ruby_system.l1_controllers1.L1Icache.m_demand_accesses       328455                       # Number of cache demand accesses (Unspecified)
board.cache_hierarchy.ruby_system.l1_controllers1.mandatoryQueue.m_msg_count       559141                       # Number of messages passed the buffer (Count)
board.cache_hierarchy.ruby_system.l1_controllers1.mandatoryQueue.m_buf_msgs     0.239115                       # Average number of messages in buffer ((Count/Tick))
board.cache_hierarchy.ruby_system.l1_controllers1.mandatoryQueue.m_stall_time          333                       # Total number of ticks messages were stalled in this buffer (Tick)
board.cache_hierarchy.ruby_system.l1_controllers1.mandatoryQueue.m_avg_stall_time     0.000596                       # Average stall ticks per message ((Tick/Count))
board.cache_hierarchy.ruby_system.l1_controllers1.power_state.pwrStateResidencyTicks::UNDEFINED   1034236395                       # Cumulative time (in ticks) in various power states (Tick)
board.cache_hierarchy.ruby_system.l1_controllers1.prefetcher.RubyPrefetcher.numMissObserved            0                       # Number of misses observed (Unspecified)
board.cache_hierarchy.ruby_system.l1_controllers1.prefetcher.RubyPrefetcher.numAllocatedStreams            0                       # Number of streams allocated for prefetching (Unspecified)
board.cache_hierarchy.ruby_system.l1_controllers1.prefetcher.RubyPrefetcher.numPrefetchRequested            0                       # Number of prefetch requests made (Unspecified)
board.cache_hierarchy.ruby_system.l1_controllers1.prefetcher.RubyPrefetcher.numHits            0                       # Number of prefetched blocks accessed (for the first time) (Unspecified)
board.cache_hierarchy.ruby_system.l1_controllers1.prefetcher.RubyPrefetcher.numPartialHits            0                       # Number of misses observed for a block being prefetched (Unspecified)
board.cache_hierarchy.ruby_system.l1_controllers1.prefetcher.RubyPrefetcher.numPagesCrossed            0                       # Number of prefetches across pages (Unspecified)
board.cache_hierarchy.ruby_system.l1_controllers1.prefetcher.RubyPrefetcher.numMissedPrefetchedBlocks            0                       # Number of misses for blocks that were prefetched, yet missed (Unspecified)
board.cache_hierarchy.ruby_system.l1_controllers1.requestFromL1Cache.m_msg_count        17196                       # Number of messages passed the buffer (Count)
board.cache_hierarchy.ruby_system.l1_controllers1.requestFromL1Cache.m_buf_msgs     0.014708                       # Average number of messages in buffer ((Count/Tick))
board.cache_hierarchy.ruby_system.l1_controllers1.requestToL1Cache.m_msg_count        16538                       # Number of messages passed the buffer (Count)
board.cache_hierarchy.ruby_system.l1_controllers1.requestToL1Cache.m_buf_msgs    59.980296                       # Average number of messages in buffer ((Count/Tick))
board.cache_hierarchy.ruby_system.l1_controllers1.responseFromL1Cache.m_msg_count        18240                       # Number of messages passed the buffer (Count)
board.cache_hierarchy.ruby_system.l1_controllers1.responseFromL1Cache.m_buf_msgs     0.015601                       # Average number of messages in buffer ((Count/Tick))
board.cache_hierarchy.ruby_system.l1_controllers1.responseToL1Cache.m_msg_count        17209                       # Number of messages passed the buffer (Count)
board.cache_hierarchy.ruby_system.l1_controllers1.responseToL1Cache.m_buf_msgs     0.007359                       # Average number of messages in buffer ((Count/Tick))
board.cache_hierarchy.ruby_system.l1_controllers1.sequencer.power_state.pwrStateResidencyTicks::UNDEFINED   1034236395                       # Cumulative time (in ticks) in various power states (Tick)
board.cache_hierarchy.ruby_system.l1_controllers1.unblockFromL1Cache.m_msg_count        16987                       # Number of messages passed the buffer (Count)
board.cache_hierarchy.ruby_system.l1_controllers1.unblockFromL1Cache.m_buf_msgs     0.007264                       # Average number of messages in buffer ((Count/Tick))
board.cache_hierarchy.ruby_system.l1_controllers2.fullyBusyCycles            2                       # cycles for which number of transistions == max transitions (Unspecified)
board.cache_hierarchy.ruby_system.l1_controllers2.delayHistogram::samples        32048                       # delay_histogram (Unspecified)
board.cache_hierarchy.ruby_system.l1_controllers2.delayHistogram::mean     0.005242                       # delay_histogram (Unspecified)
board.cache_hierarchy.ruby_system.l1_controllers2.delayHistogram::stdev     0.207146                       # delay_histogram (Unspecified)
board.cache_hierarchy.ruby_system.l1_controllers2.delayHistogram::0-1        32020     99.91%     99.91% # delay_histogram (Unspecified)
board.cache_hierarchy.ruby_system.l1_controllers2.delayHistogram::2-3            7      0.02%     99.93% # delay_histogram (Unspecified)
board.cache_hierarchy.ruby_system.l1_controllers2.delayHistogram::4-5            4      0.01%     99.95% # delay_histogram (Unspecified)
board.cache_hierarchy.ruby_system.l1_controllers2.delayHistogram::6-7            7      0.02%     99.97% # delay_histogram (Unspecified)
board.cache_hierarchy.ruby_system.l1_controllers2.delayHistogram::8-9            8      0.02%     99.99% # delay_histogram (Unspecified)
board.cache_hierarchy.ruby_system.l1_controllers2.delayHistogram::14-15            1      0.00%    100.00% # delay_histogram (Unspecified)
board.cache_hierarchy.ruby_system.l1_controllers2.delayHistogram::18-19            1      0.00%    100.00% # delay_histogram (Unspecified)
board.cache_hierarchy.ruby_system.l1_controllers2.delayHistogram::total        32048                       # delay_histogram (Unspecified)
board.cache_hierarchy.ruby_system.l1_controllers2.L1Dcache.m_demand_hits       213676                       # Number of cache demand hits (Unspecified)
board.cache_hierarchy.ruby_system.l1_controllers2.L1Dcache.m_demand_misses        16988                       # Number of cache demand misses (Unspecified)
board.cache_hierarchy.ruby_system.l1_controllers2.L1Dcache.m_demand_accesses       230664                       # Number of cache demand accesses (Unspecified)
board.cache_hierarchy.ruby_system.l1_controllers2.L1Icache.m_demand_hits       328398                       # Number of cache demand hits (Unspecified)
board.cache_hierarchy.ruby_system.l1_controllers2.L1Icache.m_demand_misses          192                       # Number of cache demand misses (Unspecified)
board.cache_hierarchy.ruby_system.l1_controllers2.L1Icache.m_demand_accesses       328590                       # Number of cache demand accesses (Unspecified)
board.cache_hierarchy.ruby_system.l1_controllers2.mandatoryQueue.m_msg_count       559254                       # Number of messages passed the buffer (Count)
board.cache_hierarchy.ruby_system.l1_controllers2.mandatoryQueue.m_buf_msgs     0.239163                       # Average number of messages in buffer ((Count/Tick))
board.cache_hierarchy.ruby_system.l1_controllers2.power_state.pwrStateResidencyTicks::UNDEFINED   1034236395                       # Cumulative time (in ticks) in various power states (Tick)
board.cache_hierarchy.ruby_system.l1_controllers2.prefetcher.RubyPrefetcher.numMissObserved            0                       # Number of misses observed (Unspecified)
board.cache_hierarchy.ruby_system.l1_controllers2.prefetcher.RubyPrefetcher.numAllocatedStreams            0                       # Number of streams allocated for prefetching (Unspecified)
board.cache_hierarchy.ruby_system.l1_controllers2.prefetcher.RubyPrefetcher.numPrefetchRequested            0                       # Number of prefetch requests made (Unspecified)
board.cache_hierarchy.ruby_system.l1_controllers2.prefetcher.RubyPrefetcher.numHits            0                       # Number of prefetched blocks accessed (for the first time) (Unspecified)
board.cache_hierarchy.ruby_system.l1_controllers2.prefetcher.RubyPrefetcher.numPartialHits            0                       # Number of misses observed for a block being prefetched (Unspecified)
board.cache_hierarchy.ruby_system.l1_controllers2.prefetcher.RubyPrefetcher.numPagesCrossed            0                       # Number of prefetches across pages (Unspecified)
board.cache_hierarchy.ruby_system.l1_controllers2.prefetcher.RubyPrefetcher.numMissedPrefetchedBlocks            0                       # Number of misses for blocks that were prefetched, yet missed (Unspecified)
board.cache_hierarchy.ruby_system.l1_controllers2.requestFromL1Cache.m_msg_count        17194                       # Number of messages passed the buffer (Count)
board.cache_hierarchy.ruby_system.l1_controllers2.requestFromL1Cache.m_buf_msgs     0.014706                       # Average number of messages in buffer ((Count/Tick))
board.cache_hierarchy.ruby_system.l1_controllers2.requestToL1Cache.m_msg_count        14843                       # Number of messages passed the buffer (Count)
board.cache_hierarchy.ruby_system.l1_controllers2.requestToL1Cache.m_buf_msgs  1655.335323                       # Average number of messages in buffer ((Count/Tick))
board.cache_hierarchy.ruby_system.l1_controllers2.responseFromL1Cache.m_msg_count        14852                       # Number of messages passed the buffer (Count)
board.cache_hierarchy.ruby_system.l1_controllers2.responseFromL1Cache.m_buf_msgs     0.012703                       # Average number of messages in buffer ((Count/Tick))
board.cache_hierarchy.ruby_system.l1_controllers2.responseToL1Cache.m_msg_count        17205                       # Number of messages passed the buffer (Count)
board.cache_hierarchy.ruby_system.l1_controllers2.responseToL1Cache.m_buf_msgs     0.007358                       # Average number of messages in buffer ((Count/Tick))
board.cache_hierarchy.ruby_system.l1_controllers2.sequencer.power_state.pwrStateResidencyTicks::UNDEFINED   1034236395                       # Cumulative time (in ticks) in various power states (Tick)
board.cache_hierarchy.ruby_system.l1_controllers2.unblockFromL1Cache.m_msg_count        16623                       # Number of messages passed the buffer (Count)
board.cache_hierarchy.ruby_system.l1_controllers2.unblockFromL1Cache.m_buf_msgs     0.007109                       # Average number of messages in buffer ((Count/Tick))
board.cache_hierarchy.ruby_system.l2_controllers0.delayHistogram::samples        65318                       # delay_histogram (Unspecified)
board.cache_hierarchy.ruby_system.l2_controllers0.delayHistogram::mean     0.964114                       # delay_histogram (Unspecified)
board.cache_hierarchy.ruby_system.l2_controllers0.delayHistogram::stdev     5.781504                       # delay_histogram (Unspecified)
board.cache_hierarchy.ruby_system.l2_controllers0.delayHistogram::0-7        63047     96.52%     96.52% # delay_histogram (Unspecified)
board.cache_hierarchy.ruby_system.l2_controllers0.delayHistogram::8-15         1278      1.96%     98.48% # delay_histogram (Unspecified)
board.cache_hierarchy.ruby_system.l2_controllers0.delayHistogram::16-23           49      0.08%     98.55% # delay_histogram (Unspecified)
[...]
board.processor.cores2.core.executeStats0.numCCRegReads       167011                       # Number of times the CC registers were read (Count)
board.processor.cores2.core.executeStats0.numCCRegWrites       231598                       # Number of times the CC registers were written (Count)
board.processor.cores2.core.executeStats0.numFpRegReads          674                       # Number of times the floating registers were read (Count)
board.processor.cores2.core.executeStats0.numFpRegWrites          401                       # Number of times the floating registers were written (Count)
board.processor.cores2.core.executeStats0.numIntRegReads      1517402                       # Number of times the integer registers were read (Count)
board.processor.cores2.core.executeStats0.numIntRegWrites      1056207                       # Number of times the integer registers were written (Count)
board.processor.cores2.core.executeStats0.numMemRefs       476846                       # Number of memory refs (Count)
board.processor.cores2.core.executeStats0.numMiscRegReads       675329                       # Number of times the Misc registers were read (Count)
board.processor.cores2.core.executeStats0.numMiscRegWrites            1                       # Number of times the Misc registers were written (Count)
board.processor.cores2.core.executeStats0.numVecAluAccesses            0                       # Number of vector alu accesses (Count)
board.processor.cores2.core.executeStats0.numDiscardedOps            0                       # Number of ops (including micro ops) which were discarded before commit (Count)
board.processor.cores2.core.fetch.predictedBranches       180977                       # Number of branches that fetch has predicted taken (Count)
board.processor.cores2.core.fetch.cycles      1918899                       # Number of cycles fetch has run and was not squashing or blocked (Cycle)
board.processor.cores2.core.fetch.squashCycles        33392                       # Number of cycles fetch has spent squashing (Cycle)
board.processor.cores2.core.fetch.miscStallCycles           49                       # Number of cycles fetch has spent waiting on interrupts, or bad addresses, or out of MSHRs (Cycle)
board.processor.cores2.core.fetch.pendingTrapStallCycles          332                       # Number of stall cycles due to pending traps (Cycle)
board.processor.cores2.core.fetch.icacheWaitRetryStallCycles          113                       # Number of stall cycles due to full MSHR (Cycle)
board.processor.cores2.core.fetch.cacheLines       328638                       # Number of cache lines fetched (Count)
board.processor.cores2.core.fetch.icacheSquashes          135                       # Number of outstanding Icache misses that were squashed (Count)
board.processor.cores2.core.fetch.nisnDist::samples      2285774                       # Number of instructions fetched each cycle (Total) (Count)
board.processor.cores2.core.fetch.nisnDist::mean     1.305652                       # Number of instructions fetched each cycle (Total) (Count)
board.processor.cores2.core.fetch.nisnDist::stdev     2.677074                       # Number of instructions fetched each cycle (Total) (Count)
board.processor.cores2.core.fetch.nisnDist::underflows            0      0.00%      0.00% # Number of instructions fetched each cycle (Total) (Count)
board.processor.cores2.core.fetch.nisnDist::0      1771746     77.51%     77.51% # Number of instructions fetched each cycle (Total) (Count)
board.processor.cores2.core.fetch.nisnDist::1        51310      2.24%     79.76% # Number of instructions fetched each cycle (Total) (Count)
board.processor.cores2.core.fetch.nisnDist::2        16471      0.72%     80.48% # Number of instructions fetched each cycle (Total) (Count)
board.processor.cores2.core.fetch.nisnDist::3        18591      0.81%     81.29% # Number of instructions fetched each cycle (Total) (Count)
board.processor.cores2.core.fetch.nisnDist::4        63586      2.78%     84.07% # Number of instructions fetched each cycle (Total) (Count)
board.processor.cores2.core.fetch.nisnDist::5        69807      3.05%     87.13% # Number of instructions fetched each cycle (Total) (Count)
board.processor.cores2.core.fetch.nisnDist::6        47240      2.07%     89.19% # Number of instructions fetched each cycle (Total) (Count)
board.processor.cores2.core.fetch.nisnDist::7        18603      0.81%     90.01% # Number of instructions fetched each cycle (Total) (Count)
board.processor.cores2.core.fetch.nisnDist::8       228420      9.99%    100.00% # Number of instructions fetched each cycle (Total) (Count)
board.processor.cores2.core.fetch.nisnDist::overflows            0      0.00%    100.00% # Number of instructions fetched each cycle (Total) (Count)
board.processor.cores2.core.fetch.nisnDist::min_value            0                       # Number of instructions fetched each cycle (Total) (Count)
board.processor.cores2.core.fetch.nisnDist::max_value            8                       # Number of instructions fetched each cycle (Total) (Count)
board.processor.cores2.core.fetch.nisnDist::total      2285774                       # Number of instructions fetched each cycle (Total) (Count)
board.processor.cores2.core.fetchStats0.numInsts      1925375                       # Number of instructions fetched (thread level) (Count)
board.processor.cores2.core.fetchStats0.numOps            0                       # Number of ops (including micro ops) fetched (thread level) (Count)
board.processor.cores2.core.fetchStats0.fetchRate     0.839723                       # Number of inst fetches per cycle ((Count/Cycle))
board.processor.cores2.core.fetchStats0.numBranches       181643                       # Number of branches fetched (Count)
board.processor.cores2.core.fetchStats0.branchRate     0.079221                       # Number of branch fetches per cycle (Ratio)
board.processor.cores2.core.fetchStats0.icacheStallCycles       349685                       # ICache total stall cycles (Cycle)
board.processor.cores2.core.fetchStats0.numFetchSuspends            0                       # Number of times Execute suspended instruction fetching (Count)
board.processor.cores2.core.iew.idleCycles            0                       # Number of cycles IEW is idle (Cycle)
board.processor.cores2.core.iew.squashCycles        16561                       # Number of cycles IEW is squashing (Cycle)
board.processor.cores2.core.iew.blockCycles      1398607                       # Number of cycles IEW is blocking (Cycle)
board.processor.cores2.core.iew.unblockCycles        35250                       # Number of cycles IEW is unblocking (Cycle)
board.processor.cores2.core.iew.dispatchedInsts      2195541                       # Number of instructions dispatched to IQ (Count)
board.processor.cores2.core.iew.dispSquashedInsts           16                       # Number of squashed instructions skipped by dispatch (Count)
board.processor.cores2.core.iew.dispLoadInsts       576629                       # Number of dispatched load instructions (Count)
board.processor.cores2.core.iew.dispStoreInsts       279594                       # Number of dispatched store instructions (Count)
board.processor.cores2.core.iew.dispNonSpecInsts        49237                       # Number of dispatched non-speculative instructions (Count)
board.processor.cores2.core.iew.iqFullEvents        18445                       # Number of times the IQ has become full, causing a stall (Count)
board.processor.cores2.core.iew.lsqFullEvents          419                       # Number of times the LSQ has become full, causing a stall (Count)
board.processor.cores2.core.iew.memOrderViolationEvents        32775                       # Number of memory order violations (Count)
board.processor.cores2.core.iew.predictedTakenIncorrect            8                       # Number of branches that were predicted taken incorrectly (Count)
board.processor.cores2.core.iew.predictedNotTakenIncorrect          161                       # Number of branches that were predicted not taken incorrectly (Count)
board.processor.cores2.core.iew.branchMispredicts          169                       # Number of branch mispredicts detected at execute (Count)
board.processor.cores2.core.iew.instsToCommit      1419756                       # Cumulative count of insts sent to commit (Count)
board.processor.cores2.core.iew.writebackCount      1419580                       # Cumulative count of insts written-back (Count)
board.processor.cores2.core.iew.producerInst       984301                       # Number of instructions producing a value (Count)
board.processor.cores2.core.iew.consumerInst      1430925                       # Number of instructions consuming a value (Count)
board.processor.cores2.core.iew.wbRate       0.619129                       # Insts written-back per cycle ((Count/Cycle))
board.processor.cores2.core.iew.wbFanout     0.687877                       # Average fanout of values written-back ((Count/Count))
board.processor.cores2.core.interrupts.clk_domain.clock         5328                       # Clock period in ticks (Tick)
board.processor.cores2.core.lsq0.forwLoads        32977                       # Number of loads that had data forwarded from stores (Count)
board.processor.cores2.core.lsq0.squashedLoads       363025                       # Number of loads squashed (Count)
board.processor.cores2.core.lsq0.ignoredResponses            0                       # Number of memory responses ignored because the instruction is squashed (Count)
board.processor.cores2.core.lsq0.memOrderViolation        32775                       # Number of memory ordering violations (Count)
board.processor.cores2.core.lsq0.squashedStores       180555                       # Number of stores squashed (Count)
board.processor.cores2.core.lsq0.rescheduledLoads            0                       # Number of loads that were rescheduled (Count)
board.processor.cores2.core.lsq0.blockedByCache            1                       # Number of times an access to memory failed due to the cache being blocked (Count)
board.processor.cores2.core.lsq0.loadToUse::samples       213604                       # Distribution of cycle latency between the first time a load is issued and its completion (Unspecified)
board.processor.cores2.core.lsq0.loadToUse::mean     7.803477                       # Distribution of cycle latency between the first time a load is issued and its completion (Unspecified)
board.processor.cores2.core.lsq0.loadToUse::stdev    17.014632                       # Distribution of cycle latency between the first time a load is issued and its completion (Unspecified)
board.processor.cores2.core.lsq0.loadToUse::0-9       196665     92.07%     92.07% # Distribution of cycle latency between the first time a load is issued and its completion (Unspecified)
board.processor.cores2.core.lsq0.loadToUse::10-19          135      0.06%     92.13% # Distribution of cycle latency between the first time a load is issued and its completion (Unspecified)
board.processor.cores2.core.lsq0.loadToUse::40-49           74      0.03%     92.17% # Distribution of cycle latency between the first time a load is issued and its completion (Unspecified)
board.processor.cores2.core.lsq0.loadToUse::50-59          185      0.09%     92.25% # Distribution of cycle latency between the first time a load is issued and its completion (Unspecified)
board.processor.cores2.core.lsq0.loadToUse::60-69        16374      7.67%     99.92% # Distribution of cycle latency between the first time a load is issued and its completion (Unspecified)
board.processor.cores2.core.lsq0.loadToUse::70-79          160      0.07%     99.99% # Distribution of cycle latency between the first time a load is issued and its completion (Unspecified)
board.processor.cores2.core.lsq0.loadToUse::80-89            2      0.00%    100.00% # Distribution of cycle latency between the first time a load is issued and its completion (Unspecified)
board.processor.cores2.core.lsq0.loadToUse::90-99            3      0.00%    100.00% # Distribution of cycle latency between the first time a load is issued and its completion (Unspecified)
board.processor.cores2.core.lsq0.loadToUse::110-119            1      0.00%    100.00% # Distribution of cycle latency between the first time a load is issued and its completion (Unspecified)
board.processor.cores2.core.lsq0.loadToUse::120-129            2      0.00%    100.00% # Distribution of cycle latency between the first time a load is issued and its completion (Unspecified)
board.processor.cores2.core.lsq0.loadToUse::170-179            1      0.00%    100.00% # Distribution of cycle latency between the first time a load is issued and its completion (Unspecified)
board.processor.cores2.core.lsq0.loadToUse::290-299            2      0.00%    100.00% # Distribution of cycle latency between the first time a load is issued and its completion (Unspecified)
board.processor.cores2.core.lsq0.loadToUse::min_value            2                       # Distribution of cycle latency between the first time a load is issued and its completion (Unspecified)
board.processor.cores2.core.lsq0.loadToUse::max_value          291                       # Distribution of cycle latency between the first time a load is issued and its completion (Unspecified)
board.processor.cores2.core.lsq0.loadToUse::total       213604                       # Distribution of cycle latency between the first time a load is issued and its completion (Unspecified)
board.processor.cores2.core.mmu.dtb.rdAccesses       328521                       # TLB accesses on read requests (Count)
board.processor.cores2.core.mmu.dtb.wrAccesses       148325                       # TLB accesses on write requests (Count)
board.processor.cores2.core.mmu.dtb.rdMisses           71                       # TLB misses on read requests (Count)
board.processor.cores2.core.mmu.dtb.wrMisses           13                       # TLB misses on write requests (Count)
board.processor.cores2.core.mmu.dtb.walker.power_state.pwrStateResidencyTicks::UNDEFINED   1034236395                       # Cumulative time (in ticks) in various power states (Tick)
board.processor.cores2.core.mmu.itb.rdAccesses            0                       # TLB accesses on read requests (Count)
board.processor.cores2.core.mmu.itb.wrAccesses       328688                       # TLB accesses on write requests (Count)
board.processor.cores2.core.mmu.itb.rdMisses            0                       # TLB misses on read requests (Count)
board.processor.cores2.core.mmu.itb.wrMisses           92                       # TLB misses on write requests (Count)
board.processor.cores2.core.mmu.itb.walker.power_state.pwrStateResidencyTicks::UNDEFINED   1034236395                       # Cumulative time (in ticks) in various power states (Tick)
board.processor.cores2.core.power_state.numTransitions            2                       # Number of power state transitions (Count)
board.processor.cores2.core.power_state.ticksClkGated::samples            1                       # Distribution of time spent in the clock gated state (Tick)
board.processor.cores2.core.power_state.ticksClkGated::mean        54279                       # Distribution of time spent in the clock gated state (Tick)
board.processor.cores2.core.power_state.ticksClkGated::1000-5e+10            1    100.00%    100.00% # Distribution of time spent in the clock gated state (Tick)
board.processor.cores2.core.power_state.ticksClkGated::min_value        54279                       # Distribution of time spent in the clock gated state (Tick)
board.processor.cores2.core.power_state.ticksClkGated::max_value        54279                       # Distribution of time spent in the clock gated state (Tick)
board.processor.cores2.core.power_state.ticksClkGated::total            1                       # Distribution of time spent in the clock gated state (Tick)
board.processor.cores2.core.power_state.pwrStateResidencyTicks::ON   1034182116                       # Cumulative time (in ticks) in various power states (Tick)
board.processor.cores2.core.power_state.pwrStateResidencyTicks::CLK_GATED        54279                       # Cumulative time (in ticks) in various power states (Tick)
board.processor.cores2.core.rename.squashCycles        16561                       # Number of cycles rename is squashing (Cycle)
board.processor.cores2.core.rename.idleCycles       185947                       # Number of cycles rename is idle (Cycle)
board.processor.cores2.core.rename.blockCycles      1561029                       # Number of cycles rename is blocking (Cycle)
board.processor.cores2.core.rename.serializeStallCycles            0                       # count of cycles rename stalled for serializing inst (Cycle)
board.processor.cores2.core.rename.runCycles       314900                       # Number of cycles rename is running (Cycle)
board.processor.cores2.core.rename.unblockCycles       207337                       # Number of cycles rename is unblocking (Cycle)
board.processor.cores2.core.rename.renamedInsts      2456043                       # Number of instructions processed by rename (Count)
board.processor.cores2.core.rename.ROBFullEvents           15                       # Number of times rename has blocked due to ROB full (Count)
board.processor.cores2.core.rename.IQFullEvents       168051                       # Number of times rename has blocked due to IQ full (Count)
board.processor.cores2.core.rename.LQFullEvents          140                       # Number of times rename has blocked due to LQ full (Count)
board.processor.cores2.core.rename.SQFullEvents         8360                       # Number of times rename has blocked due to SQ full (Count)
board.processor.cores2.core.rename.renamedOperands      3179586                       # Number of destination operands rename has renamed (Count)
board.processor.cores2.core.rename.lookups      7322794                       # Number of register rename lookups that rename has made (Count)
board.processor.cores2.core.rename.intLookups      2800026                       # Number of integer rename lookups (Count)
board.processor.cores2.core.rename.fpLookups          681                       # Number of floating rename lookups (Count)
board.processor.cores2.core.rename.committedMaps      1008237                       # Number of HB maps that are committed (Count)
board.processor.cores2.core.rename.undoneMaps      2171349                       # Number of HB maps that are undone due to squashing (Count)
board.processor.cores2.core.rename.serializing            0                       # count of serializing insts renamed (Count)
board.processor.cores2.core.rename.tempSerializing            0                       # count of temporary serializing insts renamed (Count)
board.processor.cores2.core.rename.skidInsts       341192                       # count of insts added to the skid buffer (Count)
board.processor.cores2.core.rob.reads         4283407                       # The number of ROB reads (Count)
board.processor.cores2.core.rob.writes        4571241                       # The number of ROB writes (Count)
board.processor.cores2.core.thread_0.numInsts       510861                       # Number of Instructions committed (Count)
board.processor.cores2.core.thread_0.numOps       792456                       # Number of Ops committed (Count)
board.processor.cores2.core.thread_0.numMemRefs            0                       # Number of Memory References (Count)
board.workload.inst.arm                             0                       # number of arm instructions executed (Count)
board.workload.inst.quiesce                         0                       # number of quiesce instructions executed (Count)

---------- End Simulation Statistics   ----------
