
---------- Begin Simulation Statistics ----------
simSeconds                                   0.000686                       # Number of seconds simulated (Second)
simTicks                                    685600713                       # Number of ticks simulated (Tick)
finalTick                                   948517866                       # Number of ticks from beginning of simulation (restored from checkpoints and never reset) (Tick)
simFreq                                  1000000000000                       # The number of ticks per simulated second ((Tick/Second))
hostSeconds                                     41.07                       # Real time elapsed on the host (Second)
hostTickRate                                 16695237                       # The number of ticks simulated per host second (ticks/s) ((Tick/Second))
hostMemory                                    1802560                       # Number of bytes of host memory used (Byte)
simInsts                                      1664712                       # Number of instructions simulated (Count)
simOps                                        2594362                       # Number of ops (including micro ops) simulated (Count)
hostInstRate                                    40538                       # Simulator instruction rate (inst/s) ((Count/Second))
hostOpRate                                      63176                       # Simulator op (including micro ops) rate (op/s) ((Count/Second))
board.cache_hierarchy.ruby_system.delayHistogram::bucket_size          512                       # delay histogram for all message (Unspecified)
board.cache_hierarchy.ruby_system.delayHistogram::max_bucket         5119                       # delay histogram for all message (Unspecified)
board.cache_hierarchy.ruby_system.delayHistogram::samples       219884                       # delay histogram for all message (Unspecified)
board.cache_hierarchy.ruby_system.delayHistogram::mean   417.633952                       # delay histogram for all message (Unspecified)
board.cache_hierarchy.ruby_system.delayHistogram::stdev  1191.949867                       # delay histogram for all message (Unspecified)
board.cache_hierarchy.ruby_system.delayHistogram |      195956     89.12%     89.12% |         207      0.09%     89.21% |         422      0.19%     89.40% |         388      0.18%     89.58% |          84      0.04%     89.62% |         571      0.26%     89.88% |         663      0.30%     90.18% |       18564      8.44%     98.62% |        3029      1.38%    100.00% |           0      0.00%    100.00% # delay histogram for all message (Unspecified)
board.cache_hierarchy.ruby_system.delayHistogram::total       219884                       # delay histogram for all message (Unspecified)
board.cache_hierarchy.ruby_system.m_outstandReqHistSeqr::bucket_size            2                       (Unspecified)
board.cache_hierarchy.ruby_system.m_outstandReqHistSeqr::max_bucket           19                       (Unspecified)
board.cache_hierarchy.ruby_system.m_outstandReqHistSeqr::samples      1199444                       (Unspecified)
board.cache_hierarchy.ruby_system.m_outstandReqHistSeqr::mean     1.370615                       (Unspecified)
board.cache_hierarchy.ruby_system.m_outstandReqHistSeqr::gmean     1.284443                       (Unspecified)
board.cache_hierarchy.ruby_system.m_outstandReqHistSeqr::stdev     0.554890                       (Unspecified)
board.cache_hierarchy.ruby_system.m_outstandReqHistSeqr |      776785     64.76%     64.76% |      417973     34.85%     99.61% |        3930      0.33%     99.94% |         378      0.03%     99.97% |         160      0.01%     99.98% |          84      0.01%     99.99% |          61      0.01%     99.99% |          52      0.00%    100.00% |          21      0.00%    100.00% |           0      0.00%    100.00% (Unspecified)
board.cache_hierarchy.ruby_system.m_outstandReqHistSeqr::total      1199444                       (Unspecified)
board.cache_hierarchy.ruby_system.m_latencyHistSeqr::bucket_size          256                       (Unspecified)
board.cache_hierarchy.ruby_system.m_latencyHistSeqr::max_bucket         2559                       (Unspecified)
board.cache_hierarchy.ruby_system.m_latencyHistSeqr::samples      1199910                       (Unspecified)
board.cache_hierarchy.ruby_system.m_latencyHistSeqr::mean    20.633511                       (Unspecified)
board.cache_hierarchy.ruby_system.m_latencyHistSeqr::gmean     1.348978                       (Unspecified)
board.cache_hierarchy.ruby_system.m_latencyHistSeqr::stdev   116.217275                       (Unspecified)
board.cache_hierarchy.ruby_system.m_latencyHistSeqr |     1175830     97.99%     97.99% |         593      0.05%     98.04% |        1268      0.11%     98.15% |       22208      1.85%    100.00% |           9      0.00%    100.00% |           2      0.00%    100.00% |           0      0.00%    100.00% |           0      0.00%    100.00% |           0      0.00%    100.00% |           0      0.00%    100.00% (Unspecified)
board.cache_hierarchy.ruby_system.m_latencyHistSeqr::total      1199910                       (Unspecified)
board.cache_hierarchy.ruby_system.m_hitLatencyHistSeqr::bucket_size           32                       (Unspecified)
board.cache_hierarchy.ruby_system.m_hitLatencyHistSeqr::max_bucket          319                       (Unspecified)
board.cache_hierarchy.ruby_system.m_hitLatencyHistSeqr::samples      1129307                       (Unspecified)
board.cache_hierarchy.ruby_system.m_hitLatencyHistSeqr::mean     1.001087                       (Unspecified)
board.cache_hierarchy.ruby_system.m_hitLatencyHistSeqr::gmean     1.000311                       (Unspecified)
board.cache_hierarchy.ruby_system.m_hitLatencyHistSeqr::stdev     0.336186                       (Unspecified)
board.cache_hierarchy.ruby_system.m_hitLatencyHistSeqr |     1129302    100.00%    100.00% |           1      0.00%    100.00% |           0      0.00%    100.00% |           0      0.00%    100.00% |           1      0.00%    100.00% |           2      0.00%    100.00% |           1      0.00%    100.00% |           0      0.00%    100.00% |           0      0.00%    100.00% |           0      0.00%    100.00% (Unspecified)
board.cache_hierarchy.ruby_system.m_hitLatencyHistSeqr::total      1129307                       (Unspecified)
board.cache_hierarchy.ruby_system.m_missLatencyHistSeqr::bucket_size          256                       (Unspecified)
board.cache_hierarchy.ruby_system.m_missLatencyHistSeqr::max_bucket         2559                       (Unspecified)
board.cache_hierarchy.ruby_system.m_missLatencyHistSeqr::samples        70603                       (Unspecified)
board.cache_hierarchy.ruby_system.m_missLatencyHistSeqr::mean   334.657479                       (Unspecified)
board.cache_hierarchy.ruby_system.m_missLatencyHistSeqr::gmean   161.174645                       (Unspecified)
board.cache_hierarchy.ruby_system.m_missLatencyHistSeqr::stdev   353.225376                       (Unspecified)
board.cache_hierarchy.ruby_system.m_missLatencyHistSeqr |       46523     65.89%     65.89% |         593      0.84%     66.73% |        1268      1.80%     68.53% |       22208     31.45%     99.98% |           9      0.01%    100.00% |           2      0.00%    100.00% |           0      0.00%    100.00% |           0      0.00%    100.00% |           0      0.00%    100.00% |           0      0.00%    100.00% (Unspecified)
board.cache_hierarchy.ruby_system.m_missLatencyHistSeqr::total        70603                       (Unspecified)
board.cache_hierarchy.ruby_system.delayVCHist.vnet_0::bucket_size          512                       # delay histogram for vnet_0 (Unspecified)
board.cache_hierarchy.ruby_system.delayVCHist.vnet_0::max_bucket         5119                       # delay histogram for vnet_0 (Unspecified)
board.cache_hierarchy.ruby_system.delayVCHist.vnet_0::samples       109475                       # delay histogram for vnet_0 (Unspecified)
board.cache_hierarchy.ruby_system.delayVCHist.vnet_0::mean   838.646686                       # delay histogram for vnet_0 (Unspecified)
board.cache_hierarchy.ruby_system.delayVCHist.vnet_0::stdev  1581.333179                       # delay histogram for vnet_0 (Unspecified)
board.cache_hierarchy.ruby_system.delayVCHist.vnet_0 |       85547     78.14%     78.14% |         207      0.19%     78.33% |         422      0.39%     78.72% |         388      0.35%     79.07% |          84      0.08%     79.15% |         571      0.52%     79.67% |         663      0.61%     80.28% |       18564     16.96%     97.23% |        3029      2.77%    100.00% |           0      0.00%    100.00% # delay histogram for vnet_0 (Unspecified)
board.cache_hierarchy.ruby_system.delayVCHist.vnet_0::total       109475                       # delay histogram for vnet_0 (Unspecified)
board.cache_hierarchy.ruby_system.delayVCHist.vnet_1::bucket_size            4                       # delay histogram for vnet_1 (Unspecified)
board.cache_hierarchy.ruby_system.delayVCHist.vnet_1::max_bucket           39                       # delay histogram for vnet_1 (Unspecified)
board.cache_hierarchy.ruby_system.delayVCHist.vnet_1::samples        74962                       # delay histogram for vnet_1 (Unspecified)
board.cache_hierarchy.ruby_system.delayVCHist.vnet_1::mean     0.269123                       # delay histogram for vnet_1 (Unspecified)
board.cache_hierarchy.ruby_system.delayVCHist.vnet_1::stdev     1.465526                       # delay histogram for vnet_1 (Unspecified)
board.cache_hierarchy.ruby_system.delayVCHist.vnet_1 |       72463     96.67%     96.67% |         331      0.44%     97.11% |        2107      2.81%     99.92% |          27      0.04%     99.95% |          31      0.04%    100.00% |           0      0.00%    100.00% |           3      0.00%    100.00% |           0      0.00%    100.00% |           0      0.00%    100.00% |           0      0.00%    100.00% # delay histogram for vnet_1 (Unspecified)
board.cache_hierarchy.ruby_system.delayVCHist.vnet_1::total        74962                       # delay histogram for vnet_1 (Unspecified)
board.cache_hierarchy.ruby_system.delayVCHist.vnet_2::bucket_size            1                       # delay histogram for vnet_2 (Unspecified)
board.cache_hierarchy.ruby_system.delayVCHist.vnet_2::max_bucket            9                       # delay histogram for vnet_2 (Unspecified)
board.cache_hierarchy.ruby_system.delayVCHist.vnet_2::samples        35447                       # delay histogram for vnet_2 (Unspecified)
board.cache_hierarchy.ruby_system.delayVCHist.vnet_2::mean     0.000113                       # delay histogram for vnet_2 (Unspecified)
board.cache_hierarchy.ruby_system.delayVCHist.vnet_2::stdev     0.015023                       # delay histogram for vnet_2 (Unspecified)
board.cache_hierarchy.ruby_system.delayVCHist.vnet_2 |       35445     99.99%     99.99% |           0      0.00%     99.99% |           2      0.01%    100.00% |           0      0.00%    100.00% |           0      0.00%    100.00% |           0      0.00%    100.00% |           0      0.00%    100.00% |           0      0.00%    100.00% |           0      0.00%    100.00% |           0      0.00%    100.00% # delay histogram for vnet_2 (Unspecified)
board.cache_hierarchy.ruby_system.delayVCHist.vnet_2::total        35447                       # delay histogram for vnet_2 (Unspecified)
board.cache_hierarchy.ruby_system.Directory_Controller.Fetch         1147      0.00%      0.00% (Unspecified)
board.cache_hierarchy.ruby_system.Directory_Controller.Memory_Data         1147      0.00%      0.00% (Unspecified)
board.cache_hierarchy.ruby_system.Directory_Controller.I.Fetch         1147      0.00%      0.00% (Unspecified)
board.cache_hierarchy.ruby_system.Directory_Controller.IM.Memory_Data         1147      0.00%      0.00% (Unspecified)
board.cache_hierarchy.ruby_system.L1Cache_Controller.Load |       12512      4.42%      4.42% |       16909      5.98%     10.40% |       16883      5.97%     16.37% |       16872      5.96%     22.33% |       16897      5.97%     28.31% |       16904      5.98%     34.28% |       16890      5.97%     40.26% |       16895      5.97%     46.23% |       16898      5.97%     52.20% |       16902      5.98%     58.18% |       16886      5.97%     64.15% |       16878      5.97%     70.12% |       16887      5.97%     76.09% |       16913      5.98%     82.06% |       16918      5.98%     88.05% |       16909      5.98%     94.02% |       16904      5.98%    100.00% (Unspecified)
board.cache_hierarchy.ruby_system.L1Cache_Controller.Load::total       282857                       (Unspecified)
board.cache_hierarchy.ruby_system.L1Cache_Controller.Ifetch |       21903      3.33%      3.33% |       39634      6.03%      9.37% |       39664      6.04%     15.41% |       39686      6.04%     21.45% |       39670      6.04%     27.49% |       39687      6.04%     33.53% |       39665      6.04%     39.57% |       39679      6.04%     45.61% |       39678      6.04%     51.65% |       39678      6.04%     57.69% |       39672      6.04%     63.73% |       39671      6.04%     69.77% |       39691      6.04%     75.81% |       39711      6.05%     81.86% |       39733      6.05%     87.90% |       39733      6.05%     93.95% |       39724      6.05%    100.00% (Unspecified)
board.cache_hierarchy.ruby_system.L1Cache_Controller.Ifetch::total       656879                       (Unspecified)
board.cache_hierarchy.ruby_system.L1Cache_Controller.Store |       22337      8.59%      8.59% |       14792      5.69%     14.27% |       14792      5.69%     19.96% |       14792      5.69%     25.64% |       14792      5.69%     31.33% |       14792      5.69%     37.01% |       14792      5.69%     42.70% |       14792      5.69%     48.38% |       14792      5.69%     54.07% |       14792      5.69%     59.75% |       14792      5.69%     65.44% |       14792      5.69%     71.13% |       14792      5.69%     76.81% |       15084      5.80%     82.61% |       15083      5.80%     88.41% |       15083      5.80%     94.20% |       15083      5.80%    100.00% (Unspecified)
board.cache_hierarchy.ruby_system.L1Cache_Controller.Store::total       260174                       (Unspecified)
board.cache_hierarchy.ruby_system.L1Cache_Controller.Inv |          80     32.26%     32.26% |           9      3.63%     35.89% |           8      3.23%     39.11% |           9      3.63%     42.74% |           9      3.63%     46.37% |          10      4.03%     50.40% |           8      3.23%     53.63% |          10      4.03%     57.66% |          12      4.84%     62.50% |          17      6.85%     69.35% |          10      4.03%     73.39% |          10      4.03%     77.42% |           8      3.23%     80.65% |          10      4.03%     84.68% |          13      5.24%     89.92% |          12      4.84%     94.76% |          13      5.24%    100.00% (Unspecified)
board.cache_hierarchy.ruby_system.L1Cache_Controller.Inv::total          248                       (Unspecified)
board.cache_hierarchy.ruby_system.L1Cache_Controller.L1_Replacement |         898      3.35%      3.35% |        1610      6.01%      9.36% |        1610      6.01%     15.37% |        1610      6.01%     21.38% |        1613      6.02%     27.40% |        1613      6.02%     33.42% |        1608      6.00%     39.42% |        1613      6.02%     45.44% |        1612      6.02%     51.45% |        1614      6.02%     57.48% |        1611      6.01%     63.49% |        1612      6.02%     69.51% |        1611      6.01%     75.52% |        1639      6.12%     81.63% |        1640      6.12%     87.76% |        1641      6.12%     93.88% |        1640      6.12%    100.00% (Unspecified)
board.cache_hierarchy.ruby_system.L1Cache_Controller.L1_Replacement::total        26795                       (Unspecified)
board.cache_hierarchy.ruby_system.L1Cache_Controller.Fwd_GETX |          40      0.12%      0.12% |        2010      6.13%      6.25% |        2061      6.28%     12.53% |        2061      6.28%     18.81% |        2061      6.28%     25.09% |        2061      6.28%     31.37% |        2061      6.28%     37.65% |        2061      6.28%     43.93% |        2062      6.28%     50.22% |        2061      6.28%     56.50% |        2050      6.25%     62.74% |        2048      6.24%     68.99% |        2040      6.22%     75.20% |        1991      6.07%     81.27% |        2047      6.24%     87.51% |        2063      6.29%     93.80% |        2036      6.20%    100.00% (Unspecified)
board.cache_hierarchy.ruby_system.L1Cache_Controller.Fwd_GETX::total        32814                       (Unspecified)
board.cache_hierarchy.ruby_system.L1Cache_Controller.Fwd_GETS |         411     17.23%     17.23% |         376     15.77%     33.00% |          11      0.46%     33.46% |          11      0.46%     33.92% |          12      0.50%     34.42% |          11      0.46%     34.88% |          12      0.50%     35.39% |          12      0.50%     35.89% |          12      0.50%     36.39% |          13      0.55%     36.94% |           8      0.34%     37.27% |           7      0.29%     37.57% |           7      0.29%     37.86% |        1442     60.46%     98.32% |          14      0.59%     98.91% |          11      0.46%     99.37% |          15      0.63%    100.00% (Unspecified)
board.cache_hierarchy.ruby_system.L1Cache_Controller.Fwd_GETS::total         2385                       (Unspecified)
board.cache_hierarchy.ruby_system.L1Cache_Controller.Data |           0      0.00%      0.00% |           0      0.00%      0.00% |           0      0.00%      0.00% |           0      0.00%      0.00% |           0      0.00%      0.00% |           0      0.00%      0.00% |           0      0.00%      0.00% |           0      0.00%      0.00% |           0      0.00%      0.00% |           0      0.00%      0.00% |           0      0.00%      0.00% |           0      0.00%      0.00% |           0      0.00%      0.00% |           0      0.00%      0.00% |           1    100.00%    100.00% |           0      0.00%    100.00% |           0      0.00%    100.00% (Unspecified)
board.cache_hierarchy.ruby_system.L1Cache_Controller.Data::total            1                       (Unspecified)
board.cache_hierarchy.ruby_system.L1Cache_Controller.Data_Exclusive |          83      3.94%      3.94% |         378     17.93%     21.87% |          15      0.71%     22.58% |          13      0.62%     23.20% |          15      0.71%     23.91% |          15      0.71%     24.62% |          14      0.66%     25.28% |          14      0.66%     25.95% |          15      0.71%     26.66% |          14      0.66%     27.32% |          15      0.71%     28.04% |          15      0.71%     28.75% |          15      0.71%     29.46% |        1446     68.60%     98.06% |          15      0.71%     98.77% |          13      0.62%     99.38% |          13      0.62%    100.00% (Unspecified)
board.cache_hierarchy.ruby_system.L1Cache_Controller.Data_Exclusive::total         2108                       (Unspecified)
board.cache_hierarchy.ruby_system.L1Cache_Controller.DataS_fromL1 |          41      1.72%      1.72% |          43      1.80%      3.52% |         301     12.62%     16.14% |          18      0.75%     16.90% |          18      0.75%     17.65% |          18      0.75%     18.41% |          15      0.63%     19.04% |          16      0.67%     19.71% |          21      0.88%     20.59% |          21      0.88%     21.47% |          18      0.75%     22.22% |          17      0.71%     22.94% |          19      0.80%     23.73% |         358     15.01%     38.74% |        1426     59.79%     98.53% |          20      0.84%     99.37% |          15      0.63%    100.00% (Unspecified)
board.cache_hierarchy.ruby_system.L1Cache_Controller.DataS_fromL1::total         2385                       (Unspecified)
board.cache_hierarchy.ruby_system.L1Cache_Controller.Data_all_Acks |         803      1.22%      1.22% |        3859      5.86%      7.08% |        4015      6.09%     13.17% |        4301      6.53%     19.70% |        4302      6.53%     26.23% |        4303      6.53%     32.76% |        4302      6.53%     39.29% |        4310      6.54%     45.83% |        4305      6.53%     52.36% |        4309      6.54%     58.90% |        4305      6.53%     65.44% |        4305      6.53%     71.97% |        4295      6.52%     78.49% |        2529      3.84%     82.33% |        2937      4.46%     86.79% |        4363      6.62%     93.41% |        4342      6.59%    100.00% (Unspecified)
board.cache_hierarchy.ruby_system.L1Cache_Controller.Data_all_Acks::total        65885                       (Unspecified)
board.cache_hierarchy.ruby_system.L1Cache_Controller.Ack |          31     12.55%     12.55% |          13      5.26%     17.81% |          14      5.67%     23.48% |          13      5.26%     28.74% |          13      5.26%     34.01% |          12      4.86%     38.87% |          13      5.26%     44.13% |          13      5.26%     49.39% |          13      5.26%     54.66% |          15      6.07%     60.73% |          20      8.10%     68.83% |          16      6.48%     75.30% |          15      6.07%     81.38% |          13      5.26%     86.64% |          12      4.86%     91.50% |          11      4.45%     95.95% |          10      4.05%    100.00% (Unspecified)
board.cache_hierarchy.ruby_system.L1Cache_Controller.Ack::total          247                       (Unspecified)
board.cache_hierarchy.ruby_system.L1Cache_Controller.Ack_all |          28     12.44%     12.44% |          13      5.78%     18.22% |          13      5.78%     24.00% |          13      5.78%     29.78% |          13      5.78%     35.56% |          12      5.33%     40.89% |          12      5.33%     46.22% |          12      5.33%     51.56% |          13      5.78%     57.33% |          13      5.78%     63.11% |          14      6.22%     69.33% |          13      5.78%     75.11% |          13      5.78%     80.89% |          11      4.89%     85.78% |          12      5.33%     91.11% |          10      4.44%     95.56% |          10      4.44%    100.00% (Unspecified)
board.cache_hierarchy.ruby_system.L1Cache_Controller.Ack_all::total          225                       (Unspecified)
board.cache_hierarchy.ruby_system.L1Cache_Controller.WB_Ack |         356     61.49%     61.49% |          13      2.25%     63.73% |          14      2.42%     66.15% |          14      2.42%     68.57% |          14      2.42%     70.98% |          14      2.42%     73.40% |          14      2.42%     75.82% |          14      2.42%     78.24% |          14      2.42%     80.66% |          14      2.42%     83.07% |          14      2.42%     85.49% |          14      2.42%     87.91% |          14      2.42%     90.33% |          14      2.42%     92.75% |          14      2.42%     95.16% |          14      2.42%     97.58% |          14      2.42%    100.00% (Unspecified)
board.cache_hierarchy.ruby_system.L1Cache_Controller.WB_Ack::total          579                       (Unspecified)
board.cache_hierarchy.ruby_system.L1Cache_Controller.NP.Load |         152      0.45%      0.45% |        2094      6.22%      6.67% |        2095      6.22%     12.90% |        2094      6.22%     19.12% |        2097      6.23%     25.35% |        2096      6.23%     31.58% |        2091      6.21%     37.79% |        2095      6.22%     44.01% |        2096      6.23%     50.24% |        2096      6.23%     56.47% |        2095      6.22%     62.69% |        2096      6.23%     68.92% |        2095      6.22%     75.15% |        2090      6.21%     81.36% |        2092      6.22%     87.57% |        2092      6.22%     93.79% |        2091      6.21%    100.00% (Unspecified)
board.cache_hierarchy.ruby_system.L1Cache_Controller.NP.Load::total        33657                       (Unspecified)
board.cache_hierarchy.ruby_system.L1Cache_Controller.NP.Ifetch |         352     11.40%     11.40% |         162      5.25%     16.65% |         162      5.25%     21.90% |         163      5.28%     27.18% |         163      5.28%     32.46% |         165      5.34%     37.80% |         164      5.31%     43.12% |         168      5.44%     48.56% |         166      5.38%     53.94% |         166      5.38%     59.31% |         164      5.31%     64.63% |         164      5.31%     69.94% |         164      5.31%     75.25% |         190      6.15%     81.41% |         192      6.22%     87.63% |         191      6.19%     93.81% |         191      6.19%    100.00% (Unspecified)
board.cache_hierarchy.ruby_system.L1Cache_Controller.NP.Ifetch::total         3087                       (Unspecified)
board.cache_hierarchy.ruby_system.L1Cache_Controller.NP.Store |         392     40.29%     40.29% |          28      2.88%     43.17% |          27      2.77%     45.94% |          28      2.88%     48.82% |          28      2.88%     51.70% |          28      2.88%     54.57% |          29      2.98%     57.55% |          29      2.98%     60.53% |          28      2.88%     63.41% |          29      2.98%     66.39% |          28      2.88%     69.27% |          28      2.88%     72.15% |          28      2.88%     75.03% |          61      6.27%     81.29% |          60      6.17%     87.46% |          61      6.27%     93.73% |          61      6.27%    100.00% (Unspecified)
board.cache_hierarchy.ruby_system.L1Cache_Controller.NP.Store::total          973                       (Unspecified)
board.cache_hierarchy.ruby_system.L1Cache_Controller.NP.Inv |          12    100.00%    100.00% |           0      0.00%    100.00% |           0      0.00%    100.00% |           0      0.00%    100.00% |           0      0.00%    100.00% |           0      0.00%    100.00% |           0      0.00%    100.00% |           0      0.00%    100.00% |           0      0.00%    100.00% |           0      0.00%    100.00% |           0      0.00%    100.00% |           0      0.00%    100.00% |           0      0.00%    100.00% |           0      0.00%    100.00% |           0      0.00%    100.00% |           0      0.00%    100.00% |           0      0.00%    100.00% (Unspecified)
board.cache_hierarchy.ruby_system.L1Cache_Controller.NP.Inv::total           12                       (Unspecified)
board.cache_hierarchy.ruby_system.L1Cache_Controller.I.Load |          28     48.28%     48.28% |           0      0.00%     48.28% |           0      0.00%     48.28% |           0      0.00%     48.28% |           0      0.00%     48.28% |           0      0.00%     48.28% |           0      0.00%     48.28% |           0      0.00%     48.28% |           3      5.17%     53.45% |           5      8.62%     62.07% |           4      6.90%     68.97% |           4      6.90%     75.86% |           3      5.17%     81.03% |           3      5.17%     86.21% |           2      3.45%     89.66% |           4      6.90%     96.55% |           2      3.45%    100.00% (Unspecified)
board.cache_hierarchy.ruby_system.L1Cache_Controller.I.Load::total           58                       (Unspecified)
board.cache_hierarchy.ruby_system.L1Cache_Controller.I.Store |           2      0.01%      0.01% |        1996      6.12%      6.13% |        2047      6.28%     12.41% |        2047      6.28%     18.69% |        2047      6.28%     24.96% |        2047      6.28%     31.24% |        2047      6.28%     37.52% |        2048      6.28%     43.80% |        2048      6.28%     50.08% |        2048      6.28%     56.37% |        2047      6.28%     62.64% |        2045      6.27%     68.92% |        2039      6.25%     75.17% |        1989      6.10%     81.27% |        2033      6.24%     87.51% |        2048      6.28%     93.79% |        2025      6.21%    100.00% (Unspecified)
board.cache_hierarchy.ruby_system.L1Cache_Controller.I.Store::total        32603                       (Unspecified)
board.cache_hierarchy.ruby_system.L1Cache_Controller.I.L1_Replacement |          58     95.08%     95.08% |           1      1.64%     96.72% |           0      0.00%     96.72% |           0      0.00%     96.72% |           0      0.00%     96.72% |           1      1.64%     98.36% |           0      0.00%     98.36% |           0      0.00%     98.36% |           0      0.00%     98.36% |           1      1.64%    100.00% |           0      0.00%    100.00% |           0      0.00%    100.00% |           0      0.00%    100.00% |           0      0.00%    100.00% |           0      0.00%    100.00% |           0      0.00%    100.00% |           0      0.00%    100.00% (Unspecified)
board.cache_hierarchy.ruby_system.L1Cache_Controller.I.L1_Replacement::total           61                       (Unspecified)
board.cache_hierarchy.ruby_system.L1Cache_Controller.S.Load |         298     21.77%     21.77% |          58      4.24%     26.00% |          64      4.67%     30.68% |          61      4.46%     35.14% |          66      4.82%     39.96% |          63      4.60%     44.56% |          62      4.53%     49.09% |          59      4.31%     53.40% |          78      5.70%     59.09% |          75      5.48%     64.57% |          71      5.19%     69.76% |          68      4.97%     74.73% |          77      5.62%     80.35% |          58      4.24%     84.59% |          74      5.41%     89.99% |          66      4.82%     94.81% |          71      5.19%    100.00% (Unspecified)
board.cache_hierarchy.ruby_system.L1Cache_Controller.S.Load::total         1369                       (Unspecified)
board.cache_hierarchy.ruby_system.L1Cache_Controller.S.Ifetch |       21550      3.30%      3.30% |       39472      6.04%      9.33% |       39502      6.04%     15.38% |       39523      6.05%     21.42% |       39507      6.04%     27.46% |       39522      6.05%     33.51% |       39501      6.04%     39.55% |       39511      6.04%     45.59% |       39512      6.04%     51.64% |       39512      6.04%     57.68% |       39508      6.04%     63.72% |       39507      6.04%     69.77% |       39527      6.05%     75.81% |       39521      6.04%     81.86% |       39541      6.05%     87.91% |       39542      6.05%     93.95% |       39533      6.05%    100.00% (Unspecified)
board.cache_hierarchy.ruby_system.L1Cache_Controller.S.Ifetch::total       653791                       (Unspecified)
board.cache_hierarchy.ruby_system.L1Cache_Controller.S.Store |          28     12.50%     12.50% |          13      5.80%     18.30% |          13      5.80%     24.11% |          13      5.80%     29.91% |          13      5.80%     35.71% |          12      5.36%     41.07% |          12      5.36%     46.43% |          12      5.36%     51.79% |          13      5.80%     57.59% |          13      5.80%     63.39% |          14      6.25%     69.64% |          13      5.80%     75.45% |          13      5.80%     81.25% |          11      4.91%     86.16% |          11      4.91%     91.07% |          10      4.46%     95.54% |          10      4.46%    100.00% (Unspecified)
board.cache_hierarchy.ruby_system.L1Cache_Controller.S.Store::total          224                       (Unspecified)
board.cache_hierarchy.ruby_system.L1Cache_Controller.S.Inv |          68     28.81%     28.81% |           9      3.81%     32.63% |           8      3.39%     36.02% |           9      3.81%     39.83% |           9      3.81%     43.64% |          10      4.24%     47.88% |           8      3.39%     51.27% |          10      4.24%     55.51% |          12      5.08%     60.59% |          17      7.20%     67.80% |          10      4.24%     72.03% |          10      4.24%     76.27% |           8      3.39%     79.66% |          10      4.24%     83.90% |          13      5.51%     89.41% |          12      5.08%     94.49% |          13      5.51%    100.00% (Unspecified)
board.cache_hierarchy.ruby_system.L1Cache_Controller.S.Inv::total          236                       (Unspecified)
board.cache_hierarchy.ruby_system.L1Cache_Controller.S.L1_Replacement |         484      1.85%      1.85% |        1596      6.10%      7.95% |        1596      6.10%     14.05% |        1596      6.10%     20.16% |        1599      6.11%     26.27% |        1598      6.11%     32.38% |        1594      6.09%     38.47% |        1599      6.11%     44.59% |        1598      6.11%     50.70% |        1599      6.11%     56.81% |        1597      6.11%     62.92% |        1598      6.11%     69.03% |        1597      6.11%     75.13% |        1625      6.21%     81.35% |        1626      6.22%     87.56% |        1627      6.22%     93.78% |        1626      6.22%    100.00% (Unspecified)
board.cache_hierarchy.ruby_system.L1Cache_Controller.S.L1_Replacement::total        26155                       (Unspecified)
board.cache_hierarchy.ruby_system.L1Cache_Controller.E.Load |        1740     91.77%     91.77% |           9      0.47%     92.25% |           8      0.42%     92.67% |           8      0.42%     93.09% |           8      0.42%     93.51% |           8      0.42%     93.93% |          12      0.63%     94.57% |           8      0.42%     94.99% |           8      0.42%     95.41% |          11      0.58%     95.99% |          10      0.53%     96.52% |           8      0.42%     96.94% |          11      0.58%     97.52% |          17      0.90%     98.42% |          10      0.53%     98.95% |          10      0.53%     99.47% |          10      0.53%    100.00% (Unspecified)
board.cache_hierarchy.ruby_system.L1Cache_Controller.E.Load::total         1896                       (Unspecified)
board.cache_hierarchy.ruby_system.L1Cache_Controller.E.Store |          27     16.36%     16.36% |           8      4.85%     21.21% |           9      5.45%     26.67% |           8      4.85%     31.52% |           8      4.85%     36.36% |           9      5.45%     41.82% |           8      4.85%     46.67% |           8      4.85%     51.52% |           8      4.85%     56.36% |           8      4.85%     61.21% |           9      5.45%     66.67% |           9      5.45%     72.12% |           9      5.45%     77.58% |           9      5.45%     83.03% |          10      6.06%     89.09% |           9      5.45%     94.55% |           9      5.45%    100.00% (Unspecified)
board.cache_hierarchy.ruby_system.L1Cache_Controller.E.Store::total          165                       (Unspecified)
board.cache_hierarchy.ruby_system.L1Cache_Controller.E.L1_Replacement |          14     46.67%     46.67% |           1      3.33%     50.00% |           1      3.33%     53.33% |           1      3.33%     56.67% |           1      3.33%     60.00% |           1      3.33%     63.33% |           1      3.33%     66.67% |           1      3.33%     70.00% |           1      3.33%     73.33% |           1      3.33%     76.67% |           1      3.33%     80.00% |           1      3.33%     83.33% |           1      3.33%     86.67% |           1      3.33%     90.00% |           1      3.33%     93.33% |           1      3.33%     96.67% |           1      3.33%    100.00% (Unspecified)
board.cache_hierarchy.ruby_system.L1Cache_Controller.E.L1_Replacement::total           30                       (Unspecified)
board.cache_hierarchy.ruby_system.L1Cache_Controller.E.Fwd_GETS |           7      0.38%      0.38% |         365     20.05%     20.44% |           1      0.05%     20.49% |           1      0.05%     20.55% |           2      0.11%     20.66% |           1      0.05%     20.71% |           2      0.11%     20.82% |           1      0.05%     20.88% |           2      0.11%     20.99% |           1      0.05%     21.04% |           1      0.05%     21.10% |           1      0.05%     21.15% |           1      0.05%     21.21% |        1433     78.74%     99.95% |           1      0.05%    100.00% |           0      0.00%    100.00% |           0      0.00%    100.00% (Unspecified)
board.cache_hierarchy.ruby_system.L1Cache_Controller.E.Fwd_GETS::total         1820                       (Unspecified)
board.cache_hierarchy.ruby_system.L1Cache_Controller.M.Load |       10294      4.19%      4.19% |       14748      6.00%     10.18% |       14716      5.99%     16.17% |       14709      5.98%     22.15% |       14726      5.99%     28.14% |       14737      5.99%     34.13% |       14725      5.99%     40.12% |       14733      5.99%     46.12% |       14713      5.98%     52.10% |       14715      5.98%     58.08% |       14706      5.98%     64.07% |       14702      5.98%     70.04% |       14701      5.98%     76.02% |       14745      6.00%     82.02% |       14740      5.99%     88.02% |       14737      5.99%     94.01% |       14730      5.99%    100.00% (Unspecified)
board.cache_hierarchy.ruby_system.L1Cache_Controller.M.Load::total       245877                       (Unspecified)
board.cache_hierarchy.ruby_system.L1Cache_Controller.M.Store |       21888      9.68%      9.68% |       12747      5.64%     15.31% |       12696      5.61%     20.92% |       12696      5.61%     26.54% |       12696      5.61%     32.15% |       12696      5.61%     37.76% |       12696      5.61%     43.37% |       12695      5.61%     48.99% |       12695      5.61%     54.60% |       12694      5.61%     60.21% |       12694      5.61%     65.82% |       12697      5.61%     71.43% |       12703      5.62%     77.05% |       13014      5.75%     82.80% |       12969      5.73%     88.54% |       12955      5.73%     94.26% |       12978      5.74%    100.00% (Unspecified)
board.cache_hierarchy.ruby_system.L1Cache_Controller.M.Store::total       226209                       (Unspecified)
board.cache_hierarchy.ruby_system.L1Cache_Controller.M.L1_Replacement |         342     62.30%     62.30% |          12      2.19%     64.48% |          13      2.37%     66.85% |          13      2.37%     69.22% |          13      2.37%     71.58% |          13      2.37%     73.95% |          13      2.37%     76.32% |          13      2.37%     78.69% |          13      2.37%     81.06% |          13      2.37%     83.42% |          13      2.37%     85.79% |          13      2.37%     88.16% |          13      2.37%     90.53% |          13      2.37%     92.90% |          13      2.37%     95.26% |          13      2.37%     97.63% |          13      2.37%    100.00% (Unspecified)
board.cache_hierarchy.ruby_system.L1Cache_Controller.M.L1_Replacement::total          549                       (Unspecified)
board.cache_hierarchy.ruby_system.L1Cache_Controller.M.Fwd_GETX |          40      0.12%      0.12% |        2010      6.13%      6.25% |        2061      6.28%     12.53% |        2061      6.28%     18.81% |        2061      6.28%     25.09% |        2061      6.28%     31.37% |        2061      6.28%     37.65% |        2061      6.28%     43.93% |        2062      6.28%     50.22% |        2061      6.28%     56.50% |        2050      6.25%     62.74% |        2048      6.24%     68.99% |        2040      6.22%     75.20% |        1991      6.07%     81.27% |        2047      6.24%     87.51% |        2063      6.29%     93.80% |        2036      6.20%    100.00% (Unspecified)
board.cache_hierarchy.ruby_system.L1Cache_Controller.M.Fwd_GETX::total        32814                       (Unspecified)
board.cache_hierarchy.ruby_system.L1Cache_Controller.M.Fwd_GETS |         404     71.50%     71.50% |          11      1.95%     73.45% |          10      1.77%     75.22% |          10      1.77%     76.99% |          10      1.77%     78.76% |          10      1.77%     80.53% |          10      1.77%     82.30% |          11      1.95%     84.25% |          10      1.77%     86.02% |          12      2.12%     88.14% |           7      1.24%     89.38% |           6      1.06%     90.44% |           6      1.06%     91.50% |           9      1.59%     93.10% |          13      2.30%     95.40% |          11      1.95%     97.35% |          15      2.65%    100.00% (Unspecified)
board.cache_hierarchy.ruby_system.L1Cache_Controller.M.Fwd_GETS::total          565                       (Unspecified)
board.cache_hierarchy.ruby_system.L1Cache_Controller.IS.Data_Exclusive |          83      3.94%      3.94% |         378     17.93%     21.87% |          15      0.71%     22.58% |          13      0.62%     23.20% |          15      0.71%     23.91% |          15      0.71%     24.62% |          14      0.66%     25.28% |          14      0.66%     25.95% |          15      0.71%     26.66% |          14      0.66%     27.32% |          15      0.71%     28.04% |          15      0.71%     28.75% |          15      0.71%     29.46% |        1446     68.60%     98.06% |          15      0.71%     98.77% |          13      0.62%     99.38% |          13      0.62%    100.00% (Unspecified)
board.cache_hierarchy.ruby_system.L1Cache_Controller.IS.Data_Exclusive::total         2108                       (Unspecified)
board.cache_hierarchy.ruby_system.L1Cache_Controller.IS.DataS_fromL1 |          41      1.72%      1.72% |          43      1.80%      3.52% |         301     12.62%     16.14% |          18      0.75%     16.90% |          18      0.75%     17.65% |          18      0.75%     18.41% |          15      0.63%     19.04% |          16      0.67%     19.71% |          21      0.88%     20.59% |          21      0.88%     21.47% |          18      0.75%     22.22% |          17      0.71%     22.94% |          19      0.80%     23.73% |         358     15.01%     38.74% |        1426     59.79%     98.53% |          20      0.84%     99.37% |          15      0.63%    100.00% (Unspecified)
board.cache_hierarchy.ruby_system.L1Cache_Controller.IS.DataS_fromL1::total         2385                       (Unspecified)
board.cache_hierarchy.ruby_system.L1Cache_Controller.IS.Data_all_Acks |         409      1.27%      1.27% |        1835      5.68%      6.95% |        1941      6.01%     12.95% |        2226      6.89%     19.84% |        2227      6.89%     26.73% |        2228      6.90%     33.63% |        2226      6.89%     40.52% |        2233      6.91%     47.43% |        2229      6.90%     54.33% |        2232      6.91%     61.24% |        2230      6.90%     68.14% |        2232      6.91%     75.05% |        2228      6.90%     81.94% |         479      1.48%     83.43% |         845      2.62%     86.04% |        2254      6.98%     93.02% |        2256      6.98%    100.00% (Unspecified)
board.cache_hierarchy.ruby_system.L1Cache_Controller.IS.Data_all_Acks::total        32310                       (Unspecified)
board.cache_hierarchy.ruby_system.L1Cache_Controller.IM.Data |           0      0.00%      0.00% |           0      0.00%      0.00% |           0      0.00%      0.00% |           0      0.00%      0.00% |           0      0.00%      0.00% |           0      0.00%      0.00% |           0      0.00%      0.00% |           0      0.00%      0.00% |           0      0.00%      0.00% |           0      0.00%      0.00% |           0      0.00%      0.00% |           0      0.00%      0.00% |           0      0.00%      0.00% |           0      0.00%      0.00% |           1    100.00%    100.00% |           0      0.00%    100.00% |           0      0.00%    100.00% (Unspecified)
board.cache_hierarchy.ruby_system.L1Cache_Controller.IM.Data::total            1                       (Unspecified)
board.cache_hierarchy.ruby_system.L1Cache_Controller.IM.Data_all_Acks |         394      1.17%      1.17% |        2024      6.03%      7.20% |        2074      6.18%     13.38% |        2075      6.18%     19.56% |        2075      6.18%     25.74% |        2075      6.18%     31.92% |        2076      6.18%     38.10% |        2077      6.19%     44.29% |        2076      6.18%     50.47% |        2077      6.19%     56.66% |        2075      6.18%     62.84% |        2073      6.17%     69.01% |        2067      6.16%     75.17% |        2050      6.11%     81.27% |        2092      6.23%     87.51% |        2109      6.28%     93.79% |        2086      6.21%    100.00% (Unspecified)
board.cache_hierarchy.ruby_system.L1Cache_Controller.IM.Data_all_Acks::total        33575                       (Unspecified)
board.cache_hierarchy.ruby_system.L1Cache_Controller.SM.Ack |          31     12.55%     12.55% |          13      5.26%     17.81% |          14      5.67%     23.48% |          13      5.26%     28.74% |          13      5.26%     34.01% |          12      4.86%     38.87% |          13      5.26%     44.13% |          13      5.26%     49.39% |          13      5.26%     54.66% |          15      6.07%     60.73% |          20      8.10%     68.83% |          16      6.48%     75.30% |          15      6.07%     81.38% |          13      5.26%     86.64% |          12      4.86%     91.50% |          11      4.45%     95.95% |          10      4.05%    100.00% (Unspecified)
board.cache_hierarchy.ruby_system.L1Cache_Controller.SM.Ack::total          247                       (Unspecified)
board.cache_hierarchy.ruby_system.L1Cache_Controller.SM.Ack_all |          28     12.44%     12.44% |          13      5.78%     18.22% |          13      5.78%     24.00% |          13      5.78%     29.78% |          13      5.78%     35.56% |          12      5.33%     40.89% |          12      5.33%     46.22% |          12      5.33%     51.56% |          13      5.78%     57.33% |          13      5.78%     63.11% |          14      6.22%     69.33% |          13      5.78%     75.11% |          13      5.78%     80.89% |          11      4.89%     85.78% |          12      5.33%     91.11% |          10      4.44%     95.56% |          10      4.44%    100.00% (Unspecified)
board.cache_hierarchy.ruby_system.L1Cache_Controller.SM.Ack_all::total          225                       (Unspecified)
board.cache_hierarchy.ruby_system.L1Cache_Controller.M_I.Ifetch |           1    100.00%    100.00% |           0      0.00%    100.00% |           0      0.00%    100.00% |           0      0.00%    100.00% |           0      0.00%    100.00% |           0      0.00%    100.00% |           0      0.00%    100.00% |           0      0.00%    100.00% |           0      0.00%    100.00% |           0      0.00%    100.00% |           0      0.00%    100.00% |           0      0.00%    100.00% |           0      0.00%    100.00% |           0      0.00%    100.00% |           0      0.00%    100.00% |           0      0.00%    100.00% |           0      0.00%    100.00% (Unspecified)
board.cache_hierarchy.ruby_system.L1Cache_Controller.M_I.Ifetch::total            1                       (Unspecified)
board.cache_hierarchy.ruby_system.L1Cache_Controller.M_I.WB_Ack |         356     61.49%     61.49% |          13      2.25%     63.73% |          14      2.42%     66.15% |          14      2.42%     68.57% |          14      2.42%     70.98% |          14      2.42%     73.40% |          14      2.42%     75.82% |          14      2.42%     78.24% |          14      2.42%     80.66% |          14      2.42%     83.07% |          14      2.42%     85.49% |          14      2.42%     87.91% |          14      2.42%     90.33% |          14      2.42%     92.75% |          14      2.42%     95.16% |          14      2.42%     97.58% |          14      2.42%    100.00% (Unspecified)
board.cache_hierarchy.ruby_system.L1Cache_Controller.M_I.WB_Ack::total          579                       (Unspecified)
board.cache_hierarchy.ruby_system.L2Cache_Controller.L1_GET_INSTR |         211      6.83%      6.83% |         125      4.05%     10.88% |         140      4.53%     15.41% |         166      5.38%     20.79% |         192      6.22%     27.01% |         223      7.22%     34.23% |         242      7.84%     42.07% |         162      5.25%     47.31% |         180      5.83%     53.14% |         206      6.67%     59.81% |         200      6.48%     66.29% |         203      6.57%     72.86% |         212      6.87%     79.73% |         190      6.15%     85.88% |         218      7.06%     92.94% |         218      7.06%    100.00% (Unspecified)
board.cache_hierarchy.ruby_system.L2Cache_Controller.L1_GET_INSTR::total         3088                       (Unspecified)
board.cache_hierarchy.ruby_system.L2Cache_Controller.L1_GETS |        2084      6.18%      6.18% |        2152      6.38%     12.56% |        2135      6.33%     18.89% |        2140      6.35%     25.24% |        2122      6.29%     31.53% |        2121      6.29%     37.82% |        2108      6.25%     44.07% |        2079      6.17%     50.24% |        2089      6.19%     56.43% |        2126      6.30%     62.74% |        2128      6.31%     69.05% |        2052      6.09%     75.13% |        2089      6.19%     81.33% |        2085      6.18%     87.51% |        2109      6.25%     93.77% |        2102      6.23%    100.00% (Unspecified)
board.cache_hierarchy.ruby_system.L2Cache_Controller.L1_GETS::total        33721                       (Unspecified)
board.cache_hierarchy.ruby_system.L2Cache_Controller.L1_GETX |      256761     91.20%     91.20% |       23900      8.49%     99.69% |          52      0.02%     99.71% |          53      0.02%     99.73% |          87      0.03%     99.76% |         112      0.04%     99.80% |          75      0.03%     99.83% |          80      0.03%     99.85% |          80      0.03%     99.88% |          47      0.02%     99.90% |          52      0.02%     99.92% |          32      0.01%     99.93% |          63      0.02%     99.95% |          63      0.02%     99.97% |          44      0.02%     99.99% |          30      0.01%    100.00% (Unspecified)
board.cache_hierarchy.ruby_system.L2Cache_Controller.L1_GETX::total       281531                       (Unspecified)
board.cache_hierarchy.ruby_system.L2Cache_Controller.L1_UPGRADE |           1      0.44%      0.44% |          54     24.00%     24.44% |          29     12.89%     37.33% |          14      6.22%     43.56% |          14      6.22%     49.78% |          33     14.67%     64.44% |           4      1.78%     66.22% |           5      2.22%     68.44% |           2      0.89%     69.33% |           2      0.89%     70.22% |          31     13.78%     84.00% |           0      0.00%     84.00% |          14      6.22%     90.22% |           3      1.33%     91.56% |          18      8.00%     99.56% |           1      0.44%    100.00% (Unspecified)
board.cache_hierarchy.ruby_system.L2Cache_Controller.L1_UPGRADE::total          225                       (Unspecified)
board.cache_hierarchy.ruby_system.L2Cache_Controller.L1_PUTX |          23      3.97%      3.97% |          48      8.29%     12.26% |          32      5.53%     17.79% |          43      7.43%     25.22% |          62     10.71%     35.92% |          65     11.23%     47.15% |          46      7.94%     55.09% |          47      8.12%     63.21% |          49      8.46%     71.68% |          30      5.18%     76.86% |          30      5.18%     82.04% |          10      1.73%     83.77% |          30      5.18%     88.95% |          39      6.74%     95.68% |          16      2.76%     98.45% |           9      1.55%    100.00% (Unspecified)
board.cache_hierarchy.ruby_system.L2Cache_Controller.L1_PUTX::total          579                       (Unspecified)
board.cache_hierarchy.ruby_system.L2Cache_Controller.Mem_Data |          58      5.06%      5.06% |          71      6.19%     11.25% |          77      6.71%     17.96% |          78      6.80%     24.76% |          93      8.11%     32.87% |          97      8.46%     41.33% |          80      6.97%     48.30% |          73      6.36%     54.66% |          70      6.10%     60.77% |          72      6.28%     67.04% |          56      4.88%     71.93% |          43      3.75%     75.68% |          65      5.67%     81.34% |          74      6.45%     87.79% |          69      6.02%     93.81% |          71      6.19%    100.00% (Unspecified)
board.cache_hierarchy.ruby_system.L2Cache_Controller.Mem_Data::total         1147                       (Unspecified)
board.cache_hierarchy.ruby_system.L2Cache_Controller.WB_Data |          23      4.07%      4.07% |          85     15.04%     19.12% |          62     10.97%     30.09% |          35      6.19%     36.28% |          31      5.49%     41.77% |          58     10.27%     52.04% |          19      3.36%     55.40% |          21      3.72%     59.12% |          20      3.54%     62.65% |          39      6.90%     69.56% |          47      8.32%     77.88% |          18      3.19%     81.06% |          29      5.13%     86.19% |          19      3.36%     89.56% |          35      6.19%     95.75% |          24      4.25%    100.00% (Unspecified)
board.cache_hierarchy.ruby_system.L2Cache_Controller.WB_Data::total          565                       (Unspecified)
board.cache_hierarchy.ruby_system.L2Cache_Controller.WB_Data_clean |         108      5.93%      5.93% |         111      6.10%     12.03% |         114      6.26%     18.30% |         125      6.87%     25.16% |         113      6.21%     31.37% |         119      6.54%     37.91% |         116      6.37%     44.29% |         113      6.21%     50.49% |         113      6.21%     56.70% |         112      6.15%     62.86% |         114      6.26%     69.12% |         110      6.04%     75.16% |         114      6.26%     81.43% |         116      6.37%     87.80% |         114      6.26%     94.07% |         108      5.93%    100.00% (Unspecified)
board.cache_hierarchy.ruby_system.L2Cache_Controller.WB_Data_clean::total         1820                       (Unspecified)
board.cache_hierarchy.ruby_system.L2Cache_Controller.Unblock |         131      5.49%      5.49% |         196      8.22%     13.71% |         176      7.38%     21.09% |         160      6.71%     27.80% |         144      6.04%     33.84% |         177      7.42%     41.26% |         135      5.66%     46.92% |         134      5.62%     52.54% |         133      5.58%     58.11% |         151      6.33%     64.44% |         161      6.75%     71.19% |         128      5.37%     76.56% |         143      6.00%     82.56% |         135      5.66%     88.22% |         149      6.25%     94.47% |         132      5.53%    100.00% (Unspecified)
board.cache_hierarchy.ruby_system.L2Cache_Controller.Unblock::total         2385                       (Unspecified)
board.cache_hierarchy.ruby_system.L2Cache_Controller.Exclusive_Unblock |       24685     68.75%     68.75% |        8345     23.24%     91.99% |         214      0.60%     92.58% |         209      0.58%     93.16% |         252      0.70%     93.86% |         286      0.80%     94.66% |         219      0.61%     95.27% |         218      0.61%     95.88% |         218      0.61%     96.49% |         180      0.50%     96.99% |         202      0.56%     97.55% |         146      0.41%     97.96% |         200      0.56%     98.51% |         194      0.54%     99.05% |         182      0.51%     99.56% |         158      0.44%    100.00% (Unspecified)
board.cache_hierarchy.ruby_system.L2Cache_Controller.Exclusive_Unblock::total        35908                       (Unspecified)
board.cache_hierarchy.ruby_system.L2Cache_Controller.NP.L1_GET_INSTR |          25      6.54%      6.54% |          23      6.02%     12.57% |          26      6.81%     19.37% |          27      7.07%     26.44% |          26      6.81%     33.25% |          28      7.33%     40.58% |          27      7.07%     47.64% |          22      5.76%     53.40% |          18      4.71%     58.12% |          20      5.24%     63.35% |          20      5.24%     68.59% |          23      6.02%     74.61% |          27      7.07%     81.68% |          23      6.02%     87.70% |          23      6.02%     93.72% |          24      6.28%    100.00% (Unspecified)
board.cache_hierarchy.ruby_system.L2Cache_Controller.NP.L1_GET_INSTR::total          382                       (Unspecified)
board.cache_hierarchy.ruby_system.L2Cache_Controller.NP.L1_GETS |           0      0.00%      0.00% |           2      2.99%      2.99% |           0      0.00%      2.99% |           0      0.00%      2.99% |          16     23.88%     26.87% |           1      1.49%     28.36% |           3      4.48%     32.84% |           0      0.00%     32.84% |           1      1.49%     34.33% |          18     26.87%     61.19% |           2      2.99%     64.18% |           1      1.49%     65.67% |           3      4.48%     70.15% |           0      0.00%     70.15% |           3      4.48%     74.63% |          17     25.37%    100.00% (Unspecified)
board.cache_hierarchy.ruby_system.L2Cache_Controller.NP.L1_GETS::total           67                       (Unspecified)
board.cache_hierarchy.ruby_system.L2Cache_Controller.NP.L1_GETX |          33      4.73%      4.73% |          46      6.59%     11.32% |          51      7.31%     18.62% |          51      7.31%     25.93% |          51      7.31%     33.24% |          68      9.74%     42.98% |          50      7.16%     50.14% |          51      7.31%     57.45% |          51      7.31%     64.76% |          34      4.87%     69.63% |          34      4.87%     74.50% |          19      2.72%     77.22% |          35      5.01%     82.23% |          51      7.31%     89.54% |          43      6.16%     95.70% |          30      4.30%    100.00% (Unspecified)
board.cache_hierarchy.ruby_system.L2Cache_Controller.NP.L1_GETX::total          698                       (Unspecified)
board.cache_hierarchy.ruby_system.L2Cache_Controller.SS.L1_GET_INSTR |         186      6.88%      6.88% |         102      3.77%     10.65% |         114      4.22%     14.87% |         139      5.14%     20.01% |         166      6.14%     26.15% |         195      7.21%     33.36% |         215      7.95%     41.31% |         140      5.18%     46.49% |         162      5.99%     52.48% |         185      6.84%     59.32% |         180      6.66%     65.98% |         180      6.66%     72.63% |         185      6.84%     79.47% |         167      6.18%     85.65% |         194      7.17%     92.83% |         194      7.17%    100.00% (Unspecified)
board.cache_hierarchy.ruby_system.L2Cache_Controller.SS.L1_GET_INSTR::total         2704                       (Unspecified)
board.cache_hierarchy.ruby_system.L2Cache_Controller.SS.L1_GETS |        1828      6.26%      6.26% |        1812      6.20%     12.46% |        1826      6.25%     18.71% |        1838      6.29%     24.99% |        1827      6.25%     31.25% |        1803      6.17%     37.42% |        1833      6.27%     43.69% |        1812      6.20%     49.89% |        1820      6.23%     56.12% |        1843      6.31%     62.43% |        1842      6.30%     68.73% |        1810      6.19%     74.92% |        1823      6.24%     81.16% |        1822      6.24%     87.40% |        1840      6.30%     93.69% |        1843      6.31%    100.00% (Unspecified)
board.cache_hierarchy.ruby_system.L2Cache_Controller.SS.L1_GETS::total        29222                       (Unspecified)
board.cache_hierarchy.ruby_system.L2Cache_Controller.SS.L1_GETX |           0      0.00%      0.00% |           0      0.00%      0.00% |           0      0.00%      0.00% |           0      0.00%      0.00% |           0      0.00%      0.00% |           0      0.00%      0.00% |           0      0.00%      0.00% |           0      0.00%      0.00% |           0      0.00%      0.00% |           0      0.00%      0.00% |           1    100.00%    100.00% |           0      0.00%    100.00% |           0      0.00%    100.00% |           0      0.00%    100.00% |           0      0.00%    100.00% |           0      0.00%    100.00% (Unspecified)
board.cache_hierarchy.ruby_system.L2Cache_Controller.SS.L1_GETX::total            1                       (Unspecified)
board.cache_hierarchy.ruby_system.L2Cache_Controller.SS.L1_UPGRADE |           1      0.45%      0.45% |          54     24.11%     24.55% |          29     12.95%     37.50% |          14      6.25%     43.75% |          14      6.25%     50.00% |          33     14.73%     64.73% |           4      1.79%     66.52% |           5      2.23%     68.75% |           2      0.89%     69.64% |           2      0.89%     70.54% |          30     13.39%     83.93% |           0      0.00%     83.93% |          14      6.25%     90.18% |           3      1.34%     91.52% |          18      8.04%     99.55% |           1      0.45%    100.00% (Unspecified)
board.cache_hierarchy.ruby_system.L2Cache_Controller.SS.L1_UPGRADE::total          224                       (Unspecified)
board.cache_hierarchy.ruby_system.L2Cache_Controller.M.L1_GET_INSTR |           0      0.00%      0.00% |           0      0.00%      0.00% |           0      0.00%      0.00% |           0      0.00%      0.00% |           0      0.00%      0.00% |           0      0.00%      0.00% |           0      0.00%      0.00% |           0      0.00%      0.00% |           0      0.00%      0.00% |           0      0.00%      0.00% |           0      0.00%      0.00% |           0      0.00%      0.00% |           0      0.00%      0.00% |           0      0.00%      0.00% |           1    100.00%    100.00% |           0      0.00%    100.00% (Unspecified)
board.cache_hierarchy.ruby_system.L2Cache_Controller.M.L1_GET_INSTR::total            1                       (Unspecified)
board.cache_hierarchy.ruby_system.L2Cache_Controller.M.L1_GETS |         125      6.12%      6.12% |         142      6.96%     13.08% |         133      6.52%     19.60% |         142      6.96%     26.56% |         135      6.61%     33.17% |         140      6.86%     40.03% |         137      6.71%     46.74% |         133      6.52%     53.26% |         135      6.61%     59.87% |         113      5.54%     65.41% |         118      5.78%     71.19% |         113      5.54%     76.73% |         120      5.88%     82.61% |         128      6.27%     88.88% |         117      5.73%     94.61% |         110      5.39%    100.00% (Unspecified)
board.cache_hierarchy.ruby_system.L2Cache_Controller.M.L1_GETS::total         2041                       (Unspecified)
board.cache_hierarchy.ruby_system.L2Cache_Controller.M.L1_GETX |           2      3.17%      3.17% |           3      4.76%      7.94% |           1      1.59%      9.52% |           2      3.17%     12.70% |          20     31.75%     44.44% |          16     25.40%     69.84% |           1      1.59%     71.43% |           1      1.59%     73.02% |           1      1.59%     74.60% |           1      1.59%     76.19% |           1      1.59%     77.78% |           1      1.59%     79.37% |          12     19.05%     98.41% |           0      0.00%     98.41% |           1      1.59%    100.00% |           0      0.00%    100.00% (Unspecified)
board.cache_hierarchy.ruby_system.L2Cache_Controller.M.L1_GETX::total           63                       (Unspecified)
board.cache_hierarchy.ruby_system.L2Cache_Controller.MT.L1_GETS |         131      5.49%      5.49% |         196      8.22%     13.71% |         176      7.38%     21.09% |         160      6.71%     27.80% |         144      6.04%     33.84% |         177      7.42%     41.26% |         135      5.66%     46.92% |         134      5.62%     52.54% |         133      5.58%     58.11% |         151      6.33%     64.44% |         161      6.75%     71.19% |         128      5.37%     76.56% |         143      6.00%     82.56% |         135      5.66%     88.22% |         149      6.25%     94.47% |         132      5.53%    100.00% (Unspecified)
board.cache_hierarchy.ruby_system.L2Cache_Controller.MT.L1_GETS::total         2385                       (Unspecified)
board.cache_hierarchy.ruby_system.L2Cache_Controller.MT.L1_GETX |       24524     74.74%     74.74% |        8098     24.68%     99.41% |           0      0.00%     99.41% |           0      0.00%     99.41% |          16      0.05%     99.46% |          28      0.09%     99.55% |          24      0.07%     99.62% |          28      0.09%     99.71% |          28      0.09%     99.79% |          12      0.04%     99.83% |          16      0.05%     99.88% |          12      0.04%     99.91% |          16      0.05%     99.96% |          12      0.04%    100.00% |           0      0.00%    100.00% |           0      0.00%    100.00% (Unspecified)
board.cache_hierarchy.ruby_system.L2Cache_Controller.MT.L1_GETX::total        32814                       (Unspecified)
board.cache_hierarchy.ruby_system.L2Cache_Controller.MT.L1_PUTX |          23      3.97%      3.97% |          48      8.29%     12.26% |          32      5.53%     17.79% |          43      7.43%     25.22% |          62     10.71%     35.92% |          65     11.23%     47.15% |          46      7.94%     55.09% |          47      8.12%     63.21% |          49      8.46%     71.68% |          30      5.18%     76.86% |          30      5.18%     82.04% |          10      1.73%     83.77% |          30      5.18%     88.95% |          39      6.74%     95.68% |          16      2.76%     98.45% |           9      1.55%    100.00% (Unspecified)
board.cache_hierarchy.ruby_system.L2Cache_Controller.MT.L1_PUTX::total          579                       (Unspecified)
board.cache_hierarchy.ruby_system.L2Cache_Controller.ISS.Mem_Data |           0      0.00%      0.00% |           2      2.99%      2.99% |           0      0.00%      2.99% |           0      0.00%      2.99% |          16     23.88%     26.87% |           1      1.49%     28.36% |           3      4.48%     32.84% |           0      0.00%     32.84% |           1      1.49%     34.33% |          18     26.87%     61.19% |           2      2.99%     64.18% |           1      1.49%     65.67% |           3      4.48%     70.15% |           0      0.00%     70.15% |           3      4.48%     74.63% |          17     25.37%    100.00% (Unspecified)
board.cache_hierarchy.ruby_system.L2Cache_Controller.ISS.Mem_Data::total           67                       (Unspecified)
board.cache_hierarchy.ruby_system.L2Cache_Controller.IS.L1_GET_INSTR |           0      0.00%      0.00% |           0      0.00%      0.00% |           0      0.00%      0.00% |           0      0.00%      0.00% |           0      0.00%      0.00% |           0      0.00%      0.00% |           0      0.00%      0.00% |           0      0.00%      0.00% |           0      0.00%      0.00% |           1    100.00%    100.00% |           0      0.00%    100.00% |           0      0.00%    100.00% |           0      0.00%    100.00% |           0      0.00%    100.00% |           0      0.00%    100.00% |           0      0.00%    100.00% (Unspecified)
board.cache_hierarchy.ruby_system.L2Cache_Controller.IS.L1_GET_INSTR::total            1                       (Unspecified)
board.cache_hierarchy.ruby_system.L2Cache_Controller.IS.Mem_Data |          25      6.54%      6.54% |          23      6.02%     12.57% |          26      6.81%     19.37% |          27      7.07%     26.44% |          26      6.81%     33.25% |          28      7.33%     40.58% |          27      7.07%     47.64% |          22      5.76%     53.40% |          18      4.71%     58.12% |          20      5.24%     63.35% |          20      5.24%     68.59% |          23      6.02%     74.61% |          27      7.07%     81.68% |          23      6.02%     87.70% |          23      6.02%     93.72% |          24      6.28%    100.00% (Unspecified)
board.cache_hierarchy.ruby_system.L2Cache_Controller.IS.Mem_Data::total          382                       (Unspecified)
board.cache_hierarchy.ruby_system.L2Cache_Controller.IM.Mem_Data |          33      4.73%      4.73% |          46      6.59%     11.32% |          51      7.31%     18.62% |          51      7.31%     25.93% |          51      7.31%     33.24% |          68      9.74%     42.98% |          50      7.16%     50.14% |          51      7.31%     57.45% |          51      7.31%     64.76% |          34      4.87%     69.63% |          34      4.87%     74.50% |          19      2.72%     77.22% |          35      5.01%     82.23% |          51      7.31%     89.54% |          43      6.16%     95.70% |          30      4.30%    100.00% (Unspecified)
board.cache_hierarchy.ruby_system.L2Cache_Controller.IM.Mem_Data::total          698                       (Unspecified)
board.cache_hierarchy.ruby_system.L2Cache_Controller.SS_MB.L1_GETS |           0      0.00%      0.00% |           0      0.00%      0.00% |           0      0.00%      0.00% |           0      0.00%      0.00% |           0      0.00%      0.00% |           0      0.00%      0.00% |           0      0.00%      0.00% |           0      0.00%      0.00% |           0      0.00%      0.00% |           0      0.00%      0.00% |           3    100.00%    100.00% |           0      0.00%    100.00% |           0      0.00%    100.00% |           0      0.00%    100.00% |           0      0.00%    100.00% |           0      0.00%    100.00% (Unspecified)
board.cache_hierarchy.ruby_system.L2Cache_Controller.SS_MB.L1_GETS::total            3                       (Unspecified)
board.cache_hierarchy.ruby_system.L2Cache_Controller.SS_MB.Exclusive_Unblock |           1      0.44%      0.44% |          54     24.00%     24.44% |          29     12.89%     37.33% |          14      6.22%     43.56% |          14      6.22%     49.78% |          33     14.67%     64.44% |           4      1.78%     66.22% |           5      2.22%     68.44% |           2      0.89%     69.33% |           2      0.89%     70.22% |          31     13.78%     84.00% |           0      0.00%     84.00% |          14      6.22%     90.22% |           3      1.33%     91.56% |          18      8.00%     99.56% |           1      0.44%    100.00% (Unspecified)
board.cache_hierarchy.ruby_system.L2Cache_Controller.SS_MB.Exclusive_Unblock::total          225                       (Unspecified)
board.cache_hierarchy.ruby_system.L2Cache_Controller.MT_MB.L1_GETS |           0      0.00%      0.00% |           0      0.00%      0.00% |           0      0.00%      0.00% |           0      0.00%      0.00% |           0      0.00%      0.00% |           0      0.00%      0.00% |           0      0.00%      0.00% |           0      0.00%      0.00% |           0      0.00%      0.00% |           0      0.00%      0.00% |           1    100.00%    100.00% |           0      0.00%    100.00% |           0      0.00%    100.00% |           0      0.00%    100.00% |           0      0.00%    100.00% |           0      0.00%    100.00% (Unspecified)
board.cache_hierarchy.ruby_system.L2Cache_Controller.MT_MB.L1_GETS::total            1                       (Unspecified)
board.cache_hierarchy.ruby_system.L2Cache_Controller.MT_MB.L1_GETX |      232202     93.65%     93.65% |       15753      6.35%    100.00% |           0      0.00%    100.00% |           0      0.00%    100.00% |           0      0.00%    100.00% |           0      0.00%    100.00% |           0      0.00%    100.00% |           0      0.00%    100.00% |           0      0.00%    100.00% |           0      0.00%    100.00% |           0      0.00%    100.00% |           0      0.00%    100.00% |           0      0.00%    100.00% |           0      0.00%    100.00% |           0      0.00%    100.00% |           0      0.00%    100.00% (Unspecified)
board.cache_hierarchy.ruby_system.L2Cache_Controller.MT_MB.L1_GETX::total       247955                       (Unspecified)
board.cache_hierarchy.ruby_system.L2Cache_Controller.MT_MB.Exclusive_Unblock |       24684     69.18%     69.18% |        8291     23.24%     92.41% |         185      0.52%     92.93% |         195      0.55%     93.48% |         238      0.67%     94.14% |         253      0.71%     94.85% |         215      0.60%     95.45% |         213      0.60%     96.05% |         216      0.61%     96.66% |         178      0.50%     97.16% |         171      0.48%     97.63% |         146      0.41%     98.04% |         186      0.52%     98.57% |         191      0.54%     99.10% |         164      0.46%     99.56% |         157      0.44%    100.00% (Unspecified)
board.cache_hierarchy.ruby_system.L2Cache_Controller.MT_MB.Exclusive_Unblock::total        35683                       (Unspecified)
board.cache_hierarchy.ruby_system.L2Cache_Controller.MT_IIB.L1_GETS |           0      0.00%      0.00% |           0      0.00%      0.00% |           0      0.00%      0.00% |           0      0.00%      0.00% |           0      0.00%      0.00% |           0      0.00%      0.00% |           0      0.00%      0.00% |           0      0.00%      0.00% |           0      0.00%      0.00% |           1     50.00%     50.00% |           1     50.00%    100.00% |           0      0.00%    100.00% |           0      0.00%    100.00% |           0      0.00%    100.00% |           0      0.00%    100.00% |           0      0.00%    100.00% (Unspecified)
board.cache_hierarchy.ruby_system.L2Cache_Controller.MT_IIB.L1_GETS::total            2                       (Unspecified)
board.cache_hierarchy.ruby_system.L2Cache_Controller.MT_IIB.WB_Data |          22      4.10%      4.10% |          67     12.48%     16.57% |          60     11.17%     27.75% |          35      6.52%     34.26% |          31      5.77%     40.04% |          58     10.80%     50.84% |          19      3.54%     54.38% |          20      3.72%     58.10% |          20      3.72%     61.82% |          39      7.26%     69.09% |          42      7.82%     76.91% |          18      3.35%     80.26% |          29      5.40%     85.66% |          19      3.54%     89.20% |          35      6.52%     95.72% |          23      4.28%    100.00% (Unspecified)
board.cache_hierarchy.ruby_system.L2Cache_Controller.MT_IIB.WB_Data::total          537                       (Unspecified)
board.cache_hierarchy.ruby_system.L2Cache_Controller.MT_IIB.WB_Data_clean |         108      5.97%      5.97% |         110      6.08%     12.06% |         114      6.31%     18.36% |         114      6.31%     24.67% |         113      6.25%     30.92% |         119      6.58%     37.50% |         116      6.42%     43.92% |         113      6.25%     50.17% |         113      6.25%     56.42% |         112      6.19%     62.61% |         114      6.31%     68.92% |         110      6.08%     75.00% |         114      6.31%     81.31% |         116      6.42%     87.72% |         114      6.31%     94.03% |         108      5.97%    100.00% (Unspecified)
board.cache_hierarchy.ruby_system.L2Cache_Controller.MT_IIB.WB_Data_clean::total         1808                       (Unspecified)
board.cache_hierarchy.ruby_system.L2Cache_Controller.MT_IIB.Unblock |           1      2.50%      2.50% |          19     47.50%     50.00% |           2      5.00%     55.00% |          11     27.50%     82.50% |           0      0.00%     82.50% |           0      0.00%     82.50% |           0      0.00%     82.50% |           1      2.50%     85.00% |           0      0.00%     85.00% |           0      0.00%     85.00% |           5     12.50%     97.50% |           0      0.00%     97.50% |           0      0.00%     97.50% |           0      0.00%     97.50% |           0      0.00%     97.50% |           1      2.50%    100.00% (Unspecified)
board.cache_hierarchy.ruby_system.L2Cache_Controller.MT_IIB.Unblock::total           40                       (Unspecified)
board.cache_hierarchy.ruby_system.L2Cache_Controller.MT_IB.WB_Data |           1      3.57%      3.57% |          18     64.29%     67.86% |           2      7.14%     75.00% |           0      0.00%     75.00% |           0      0.00%     75.00% |           0      0.00%     75.00% |           0      0.00%     75.00% |           1      3.57%     78.57% |           0      0.00%     78.57% |           0      0.00%     78.57% |           5     17.86%     96.43% |           0      0.00%     96.43% |           0      0.00%     96.43% |           0      0.00%     96.43% |           0      0.00%     96.43% |           1      3.57%    100.00% (Unspecified)
board.cache_hierarchy.ruby_system.L2Cache_Controller.MT_IB.WB_Data::total           28                       (Unspecified)
board.cache_hierarchy.ruby_system.L2Cache_Controller.MT_IB.WB_Data_clean |           0      0.00%      0.00% |           1      8.33%      8.33% |           0      0.00%      8.33% |          11     91.67%    100.00% |           0      0.00%    100.00% |           0      0.00%    100.00% |           0      0.00%    100.00% |           0      0.00%    100.00% |           0      0.00%    100.00% |           0      0.00%    100.00% |           0      0.00%    100.00% |           0      0.00%    100.00% |           0      0.00%    100.00% |           0      0.00%    100.00% |           0      0.00%    100.00% |           0      0.00%    100.00% (Unspecified)
board.cache_hierarchy.ruby_system.L2Cache_Controller.MT_IB.WB_Data_clean::total           12                       (Unspecified)
board.cache_hierarchy.ruby_system.L2Cache_Controller.MT_SB.L1_UPGRADE |           0      0.00%      0.00% |           0      0.00%      0.00% |           0      0.00%      0.00% |           0      0.00%      0.00% |           0      0.00%      0.00% |           0      0.00%      0.00% |           0      0.00%      0.00% |           0      0.00%      0.00% |           0      0.00%      0.00% |           0      0.00%      0.00% |           1    100.00%    100.00% |           0      0.00%    100.00% |           0      0.00%    100.00% |           0      0.00%    100.00% |           0      0.00%    100.00% |           0      0.00%    100.00% (Unspecified)
board.cache_hierarchy.ruby_system.L2Cache_Controller.MT_SB.L1_UPGRADE::total            1                       (Unspecified)
board.cache_hierarchy.ruby_system.L2Cache_Controller.MT_SB.Unblock |         130      5.54%      5.54% |         177      7.55%     13.09% |         174      7.42%     20.51% |         149      6.35%     26.87% |         144      6.14%     33.01% |         177      7.55%     40.55% |         135      5.76%     46.31% |         133      5.67%     51.98% |         133      5.67%     57.65% |         151      6.44%     64.09% |         156      6.65%     70.75% |         128      5.46%     76.20% |         143      6.10%     82.30% |         135      5.76%     88.06% |         149      6.35%     94.41% |         131      5.59%    100.00% (Unspecified)
board.cache_hierarchy.ruby_system.L2Cache_Controller.MT_SB.Unblock::total         2345                       (Unspecified)
board.cache_hierarchy.ruby_system.RequestType.LD.latency_hist_seqr::bucket_size           32                       (Unspecified)
board.cache_hierarchy.ruby_system.RequestType.LD.latency_hist_seqr::max_bucket          319                       (Unspecified)
board.cache_hierarchy.ruby_system.RequestType.LD.latency_hist_seqr::samples       282857                       (Unspecified)
board.cache_hierarchy.ruby_system.RequestType.LD.latency_hist_seqr::mean     7.596029                       (Unspecified)
board.cache_hierarchy.ruby_system.RequestType.LD.latency_hist_seqr::gmean     1.607496                       (Unspecified)
board.cache_hierarchy.ruby_system.RequestType.LD.latency_hist_seqr::stdev    18.635115                       (Unspecified)
board.cache_hierarchy.ruby_system.RequestType.LD.latency_hist_seqr |      251162     88.79%     88.79% |       29449     10.41%     99.21% |        2175      0.77%     99.97% |           4      0.00%     99.98% |           1      0.00%     99.98% |           3      0.00%     99.98% |          24      0.01%     99.99% |          31      0.01%    100.00% |           8      0.00%    100.00% |           0      0.00%    100.00% (Unspecified)
[...]
board.processor.cores9.core.executeStats0.numBranches        12972                       # Number of branches executed (Count)
board.processor.cores9.core.executeStats0.numLoadInsts        45861                       # Number of load instructions executed (Count)
board.processor.cores9.core.executeStats0.numStoreInsts        16930                       # Number of stores executed (Count)
board.processor.cores9.core.executeStats0.instRate     0.098633                       # Inst execution rate ((Count/Cycle))
board.processor.cores9.core.executeStats0.numCCRegReads        22641                       # Number of times the CC registers were read (Count)
board.processor.cores9.core.executeStats0.numCCRegWrites        38249                       # Number of times the CC registers were written (Count)
board.processor.cores9.core.executeStats0.numFpRegReads           15                       # Number of times the floating registers were read (Count)
board.processor.cores9.core.executeStats0.numFpRegWrites           10                       # Number of times the floating registers were written (Count)
board.processor.cores9.core.executeStats0.numIntRegReads       208663                       # Number of times the integer registers were read (Count)
board.processor.cores9.core.executeStats0.numIntRegWrites       145523                       # Number of times the integer registers were written (Count)
board.processor.cores9.core.executeStats0.numMemRefs        62791                       # Number of memory refs (Count)
board.processor.cores9.core.executeStats0.numMiscRegReads        88697                       # Number of times the Misc registers were read (Count)
board.processor.cores9.core.executeStats0.numMiscRegWrites            1                       # Number of times the Misc registers were written (Count)
board.processor.cores9.core.executeStats0.numVecAluAccesses            0                       # Number of vector alu accesses (Count)
board.processor.cores9.core.executeStats0.numDiscardedOps            0                       # Number of ops (including micro ops) which were discarded before commit (Count)
board.processor.cores9.core.fetch.predictedBranches        23090                       # Number of branches that fetch has predicted taken (Count)
board.processor.cores9.core.fetch.cycles      1881439                       # Number of cycles fetch has run and was not squashing or blocked (Cycle)
board.processor.cores9.core.fetch.squashCycles         4606                       # Number of cycles fetch has spent squashing (Cycle)
board.processor.cores9.core.fetch.miscStallCycles           34                       # Number of cycles fetch has spent waiting on interrupts, or bad addresses, or out of MSHRs (Cycle)
board.processor.cores9.core.fetch.pendingTrapStallCycles          212                       # Number of stall cycles due to pending traps (Cycle)
board.processor.cores9.core.fetch.icacheWaitRetryStallCycles           22                       # Number of stall cycles due to full MSHR (Cycle)
board.processor.cores9.core.fetch.cacheLines        39706                       # Number of cache lines fetched (Count)
board.processor.cores9.core.fetch.icacheSquashes         2146                       # Number of outstanding Icache misses that were squashed (Count)
board.processor.cores9.core.fetch.nisnDist::samples      1928145                       # Number of instructions fetched each cycle (Total) (Count)
board.processor.cores9.core.fetch.nisnDist::mean     0.192928                       # Number of instructions fetched each cycle (Total) (Count)
board.processor.cores9.core.fetch.nisnDist::stdev     1.124788                       # Number of instructions fetched each cycle (Total) (Count)
board.processor.cores9.core.fetch.nisnDist::underflows            0      0.00%      0.00% # Number of instructions fetched each cycle (Total) (Count)
board.processor.cores9.core.fetch.nisnDist::0      1865240     96.74%     96.74% # Number of instructions fetched each cycle (Total) (Count)
board.processor.cores9.core.fetch.nisnDist::1         2104      0.11%     96.85% # Number of instructions fetched each cycle (Total) (Count)
board.processor.cores9.core.fetch.nisnDist::2         6199      0.32%     97.17% # Number of instructions fetched each cycle (Total) (Count)
board.processor.cores9.core.fetch.nisnDist::3         2112      0.11%     97.28% # Number of instructions fetched each cycle (Total) (Count)
board.processor.cores9.core.fetch.nisnDist::4         8285      0.43%     97.71% # Number of instructions fetched each cycle (Total) (Count)
board.processor.cores9.core.fetch.nisnDist::5         4234      0.22%     97.93% # Number of instructions fetched each cycle (Total) (Count)
board.processor.cores9.core.fetch.nisnDist::6         6270      0.33%     98.25% # Number of instructions fetched each cycle (Total) (Count)
board.processor.cores9.core.fetch.nisnDist::7        10383      0.54%     98.79% # Number of instructions fetched each cycle (Total) (Count)
board.processor.cores9.core.fetch.nisnDist::8        23318      1.21%    100.00% # Number of instructions fetched each cycle (Total) (Count)
board.processor.cores9.core.fetch.nisnDist::overflows            0      0.00%    100.00% # Number of instructions fetched each cycle (Total) (Count)
board.processor.cores9.core.fetch.nisnDist::min_value            0                       # Number of instructions fetched each cycle (Total) (Count)
board.processor.cores9.core.fetch.nisnDist::max_value            8                       # Number of instructions fetched each cycle (Total) (Count)
board.processor.cores9.core.fetch.nisnDist::total      1928145                       # Number of instructions fetched each cycle (Total) (Count)
board.processor.cores9.core.fetchStats0.numInsts       248387                       # Number of instructions fetched (thread level) (Count)
board.processor.cores9.core.fetchStats0.numOps            0                       # Number of ops (including micro ops) fetched (thread level) (Count)
board.processor.cores9.core.fetchStats0.fetchRate     0.128666                       # Number of inst fetches per cycle ((Count/Cycle))
board.processor.cores9.core.fetchStats0.numBranches        23649                       # Number of branches fetched (Count)
board.processor.cores9.core.fetchStats0.branchRate     0.012250                       # Number of branch fetches per cycle (Ratio)
board.processor.cores9.core.fetchStats0.icacheStallCycles        44135                       # ICache total stall cycles (Cycle)
board.processor.cores9.core.fetchStats0.numFetchSuspends            0                       # Number of times Execute suspended instruction fetching (Count)
board.processor.cores9.core.iew.idleCycles            0                       # Number of cycles IEW is idle (Cycle)
board.processor.cores9.core.iew.squashCycles         2187                       # Number of cycles IEW is squashing (Cycle)
board.processor.cores9.core.iew.blockCycles      1803367                       # Number of cycles IEW is blocking (Cycle)
board.processor.cores9.core.iew.unblockCycles         4143                       # Number of cycles IEW is unblocking (Cycle)
board.processor.cores9.core.iew.dispatchedInsts       277536                       # Number of instructions dispatched to IQ (Count)
board.processor.cores9.core.iew.dispSquashedInsts           16                       # Number of squashed instructions skipped by dispatch (Count)
board.processor.cores9.core.iew.dispLoadInsts        72701                       # Number of dispatched load instructions (Count)
board.processor.cores9.core.iew.dispStoreInsts        33420                       # Number of dispatched store instructions (Count)
board.processor.cores9.core.iew.dispNonSpecInsts         4124                       # Number of dispatched non-speculative instructions (Count)
board.processor.cores9.core.iew.iqFullEvents         2064                       # Number of times the IQ has become full, causing a stall (Count)
board.processor.cores9.core.iew.lsqFullEvents           31                       # Number of times the LSQ has become full, causing a stall (Count)
board.processor.cores9.core.iew.memOrderViolationEvents         2055                       # Number of memory order violations (Count)
board.processor.cores9.core.iew.predictedTakenIncorrect            9                       # Number of branches that were predicted taken incorrectly (Count)
board.processor.cores9.core.iew.predictedNotTakenIncorrect          123                       # Number of branches that were predicted not taken incorrectly (Count)
board.processor.cores9.core.iew.branchMispredicts          132                       # Number of branch mispredicts detected at execute (Count)
board.processor.cores9.core.iew.instsToCommit       190365                       # Cumulative count of insts sent to commit (Count)
board.processor.cores9.core.iew.writebackCount       190237                       # Cumulative count of insts written-back (Count)
board.processor.cores9.core.iew.producerInst       136896                       # Number of instructions producing a value (Count)
board.processor.cores9.core.iew.consumerInst       202052                       # Number of instructions consuming a value (Count)
board.processor.cores9.core.iew.wbRate       0.098544                       # Insts written-back per cycle ((Count/Cycle))
board.processor.cores9.core.iew.wbFanout     0.677529                       # Average fanout of values written-back ((Count/Count))
board.processor.cores9.core.interrupts.clk_domain.clock         5328                       # Clock period in ticks (Tick)
board.processor.cores9.core.lsq0.forwLoads         4269                       # Number of loads that had data forwarded from stores (Count)
board.processor.cores9.core.lsq0.squashedLoads        43463                       # Number of loads squashed (Count)
board.processor.cores9.core.lsq0.ignoredResponses            0                       # Number of memory responses ignored because the instruction is squashed (Count)
board.processor.cores9.core.lsq0.memOrderViolation         2055                       # Number of memory ordering violations (Count)
board.processor.cores9.core.lsq0.squashedStores        20692                       # Number of stores squashed (Count)
board.processor.cores9.core.lsq0.rescheduledLoads            0                       # Number of loads that were rescheduled (Count)
board.processor.cores9.core.lsq0.blockedByCache            2                       # Number of times an access to memory failed due to the cache being blocked (Count)
board.processor.cores9.core.lsq0.loadToUse::samples        29238                       # Distribution of cycle latency between the first time a load is issued and its completion (Unspecified)
board.processor.cores9.core.lsq0.loadToUse::mean    63.574492                       # Distribution of cycle latency between the first time a load is issued and its completion (Unspecified)
board.processor.cores9.core.lsq0.loadToUse::stdev   207.642824                       # Distribution of cycle latency between the first time a load is issued and its completion (Unspecified)
board.processor.cores9.core.lsq0.loadToUse::0-9        25069     85.74%     85.74% # Distribution of cycle latency between the first time a load is issued and its completion (Unspecified)
board.processor.cores9.core.lsq0.loadToUse::10-19          127      0.43%     86.18% # Distribution of cycle latency between the first time a load is issued and its completion (Unspecified)
board.processor.cores9.core.lsq0.loadToUse::20-29            4      0.01%     86.19% # Distribution of cycle latency between the first time a load is issued and its completion (Unspecified)
board.processor.cores9.core.lsq0.loadToUse::50-59         1925      6.58%     92.77% # Distribution of cycle latency between the first time a load is issued and its completion (Unspecified)
board.processor.cores9.core.lsq0.loadToUse::60-69           42      0.14%     92.92% # Distribution of cycle latency between the first time a load is issued and its completion (Unspecified)
board.processor.cores9.core.lsq0.loadToUse::70-79            2      0.01%     92.92% # Distribution of cycle latency between the first time a load is issued and its completion (Unspecified)
board.processor.cores9.core.lsq0.loadToUse::80-89            8      0.03%     92.95% # Distribution of cycle latency between the first time a load is issued and its completion (Unspecified)
board.processor.cores9.core.lsq0.loadToUse::90-99            9      0.03%     92.98% # Distribution of cycle latency between the first time a load is issued and its completion (Unspecified)
board.processor.cores9.core.lsq0.loadToUse::150-159            1      0.00%     92.99% # Distribution of cycle latency between the first time a load is issued and its completion (Unspecified)
board.processor.cores9.core.lsq0.loadToUse::180-189            1      0.00%     92.99% # Distribution of cycle latency between the first time a load is issued and its completion (Unspecified)
board.processor.cores9.core.lsq0.loadToUse::200-209           10      0.03%     93.02% # Distribution of cycle latency between the first time a load is issued and its completion (Unspecified)
board.processor.cores9.core.lsq0.loadToUse::250-259            1      0.00%     93.03% # Distribution of cycle latency between the first time a load is issued and its completion (Unspecified)
board.processor.cores9.core.lsq0.loadToUse::270-279            1      0.00%     93.03% # Distribution of cycle latency between the first time a load is issued and its completion (Unspecified)
board.processor.cores9.core.lsq0.loadToUse::280-289            1      0.00%     93.03% # Distribution of cycle latency between the first time a load is issued and its completion (Unspecified)
board.processor.cores9.core.lsq0.loadToUse::290-299           11      0.04%     93.07% # Distribution of cycle latency between the first time a load is issued and its completion (Unspecified)
board.processor.cores9.core.lsq0.loadToUse::overflows         2026      6.93%    100.00% # Distribution of cycle latency between the first time a load is issued and its completion (Unspecified)
board.processor.cores9.core.lsq0.loadToUse::min_value            2                       # Distribution of cycle latency between the first time a load is issued and its completion (Unspecified)
board.processor.cores9.core.lsq0.loadToUse::max_value          885                       # Distribution of cycle latency between the first time a load is issued and its completion (Unspecified)
board.processor.cores9.core.lsq0.loadToUse::total        29238                       # Distribution of cycle latency between the first time a load is issued and its completion (Unspecified)
board.processor.cores9.core.mmu.dtb.rdAccesses        45849                       # TLB accesses on read requests (Count)
board.processor.cores9.core.mmu.dtb.wrAccesses        16930                       # TLB accesses on write requests (Count)
board.processor.cores9.core.mmu.dtb.rdMisses           95                       # TLB misses on read requests (Count)
board.processor.cores9.core.mmu.dtb.wrMisses           14                       # TLB misses on write requests (Count)
board.processor.cores9.core.mmu.dtb.walker.power_state.pwrStateResidencyTicks::UNDEFINED    948517866                       # Cumulative time (in ticks) in various power states (Tick)
board.processor.cores9.core.mmu.itb.rdAccesses            0                       # TLB accesses on read requests (Count)
board.processor.cores9.core.mmu.itb.wrAccesses        39742                       # TLB accesses on write requests (Count)
board.processor.cores9.core.mmu.itb.rdMisses            0                       # TLB misses on read requests (Count)
board.processor.cores9.core.mmu.itb.wrMisses           90                       # TLB misses on write requests (Count)
board.processor.cores9.core.mmu.itb.walker.power_state.pwrStateResidencyTicks::UNDEFINED    948517866                       # Cumulative time (in ticks) in various power states (Tick)
board.processor.cores9.core.power_state.pwrStateResidencyTicks::ON    948517866                       # Cumulative time (in ticks) in various power states (Tick)
board.processor.cores9.core.rename.squashCycles         2187                       # Number of cycles rename is squashing (Cycle)
board.processor.cores9.core.rename.idleCycles        31966                       # Number of cycles rename is idle (Cycle)
board.processor.cores9.core.rename.blockCycles      1830439                       # Number of cycles rename is blocking (Cycle)
board.processor.cores9.core.rename.serializeStallCycles            0                       # count of cycles rename stalled for serializing inst (Cycle)
board.processor.cores9.core.rename.runCycles        38022                       # Number of cycles rename is running (Cycle)
board.processor.cores9.core.rename.unblockCycles        25531                       # Number of cycles rename is unblocking (Cycle)
board.processor.cores9.core.rename.renamedInsts       294346                       # Number of instructions processed by rename (Count)
board.processor.cores9.core.rename.ROBFullEvents           22                       # Number of times rename has blocked due to ROB full (Count)
board.processor.cores9.core.rename.IQFullEvents        22602                       # Number of times rename has blocked due to IQ full (Count)
board.processor.cores9.core.rename.LQFullEvents           65                       # Number of times rename has blocked due to LQ full (Count)
board.processor.cores9.core.rename.SQFullEvents          775                       # Number of times rename has blocked due to SQ full (Count)
board.processor.cores9.core.rename.renamedOperands       391777                       # Number of destination operands rename has renamed (Count)
board.processor.cores9.core.rename.lookups       893202                       # Number of register rename lookups that rename has made (Count)
board.processor.cores9.core.rename.intLookups       343818                       # Number of integer rename lookups (Count)
board.processor.cores9.core.rename.fpLookups           15                       # Number of floating rename lookups (Count)
board.processor.cores9.core.rename.committedMaps       147147                       # Number of HB maps that are committed (Count)
board.processor.cores9.core.rename.undoneMaps       244630                       # Number of HB maps that are undone due to squashing (Count)
board.processor.cores9.core.rename.serializing            0                       # count of serializing insts renamed (Count)
board.processor.cores9.core.rename.tempSerializing            0                       # count of temporary serializing insts renamed (Count)
board.processor.cores9.core.rename.skidInsts        53779                       # count of insts added to the skid buffer (Count)
board.processor.cores9.core.rob.reads         2180244                       # The number of ROB reads (Count)
board.processor.cores9.core.rob.writes         577792                       # The number of ROB writes (Count)
board.processor.cores9.core.thread_0.numInsts        71576                       # Number of Instructions committed (Count)
board.processor.cores9.core.thread_0.numOps       108575                       # Number of Ops committed (Count)
board.processor.cores9.core.thread_0.numMemRefs            0                       # Number of Memory References (Count)
board.workload.inst.arm                             0                       # number of arm instructions executed (Count)
board.workload.inst.quiesce                         0                       # number of quiesce instructions executed (Count)

---------- End Simulation Statistics   ----------
