
---------- Begin Simulation Statistics ----------
simSeconds                                   0.000881                       # Number of seconds simulated (Second)
simTicks                                    880877907                       # Number of ticks simulated (Tick)
finalTick                                  1139841351                       # Number of ticks from beginning of simulation (restored from checkpoints and never reset) (Tick)
simFreq                                  1000000000000                       # The number of ticks per simulated second ((Tick/Second))
hostSeconds                                     31.35                       # Real time elapsed on the host (Second)
hostTickRate                                 28098978                       # The number of ticks simulated per host second (ticks/s) ((Tick/Second))
hostMemory                                    1631060                       # Number of bytes of host memory used (Byte)
simInsts                                      1603793                       # Number of instructions simulated (Count)
simOps                                        2478592                       # Number of ops (including micro ops) simulated (Count)
hostInstRate                                    51159                       # Simulator instruction rate (inst/s) ((Count/Second))
hostOpRate                                      79064                       # Simulator op (including micro ops) rate (op/s) ((Count/Second))
board.cache_hierarchy.ruby_system.delayHistogram::bucket_size          256                       # delay histogram for all message (Unspecified)
board.cache_hierarchy.ruby_system.delayHistogram::max_bucket         2559                       # delay histogram for all message (Unspecified)
board.cache_hierarchy.ruby_system.delayHistogram::samples       180086                       # delay histogram for all message (Unspecified)
board.cache_hierarchy.ruby_system.delayHistogram::mean   265.539442                       # delay histogram for all message (Unspecified)
board.cache_hierarchy.ruby_system.delayHistogram::stdev   577.241648                       # delay histogram for all message (Unspecified)
board.cache_hierarchy.ruby_system.delayHistogram |      147896     82.13%     82.13% |         227      0.13%     82.25% |         305      0.17%     82.42% |         290      0.16%     82.58% |        4941      2.74%     85.33% |        9839      5.46%     90.79% |       14665      8.14%     98.93% |        1923      1.07%    100.00% |           0      0.00%    100.00% |           0      0.00%    100.00% # delay histogram for all message (Unspecified)
board.cache_hierarchy.ruby_system.delayHistogram::total       180086                       # delay histogram for all message (Unspecified)
board.cache_hierarchy.ruby_system.m_outstandReqHistSeqr::bucket_size            2                       (Unspecified)
board.cache_hierarchy.ruby_system.m_outstandReqHistSeqr::max_bucket           19                       (Unspecified)
board.cache_hierarchy.ruby_system.m_outstandReqHistSeqr::samples      1158503                       (Unspecified)
board.cache_hierarchy.ruby_system.m_outstandReqHistSeqr::mean     1.262724                       (Unspecified)
board.cache_hierarchy.ruby_system.m_outstandReqHistSeqr::gmean     1.195210                       (Unspecified)
board.cache_hierarchy.ruby_system.m_outstandReqHistSeqr::stdev     0.487453                       (Unspecified)
board.cache_hierarchy.ruby_system.m_outstandReqHistSeqr |      866268     74.77%     74.77% |      289750     25.01%     99.79% |        2062      0.18%     99.96% |         193      0.02%     99.98% |          87      0.01%     99.99% |          60      0.01%     99.99% |          41      0.00%    100.00% |          27      0.00%    100.00% |          15      0.00%    100.00% |           0      0.00%    100.00% (Unspecified)
board.cache_hierarchy.ruby_system.m_outstandReqHistSeqr::total      1158503                       (Unspecified)
board.cache_hierarchy.ruby_system.m_latencyHistSeqr::bucket_size          256                       (Unspecified)
board.cache_hierarchy.ruby_system.m_latencyHistSeqr::max_bucket         2559                       (Unspecified)
board.cache_hierarchy.ruby_system.m_latencyHistSeqr::samples      1158775                       (Unspecified)
board.cache_hierarchy.ruby_system.m_latencyHistSeqr::mean    16.558591                       (Unspecified)
board.cache_hierarchy.ruby_system.m_latencyHistSeqr::gmean     1.273572                       (Unspecified)
board.cache_hierarchy.ruby_system.m_latencyHistSeqr::stdev    86.469789                       (Unspecified)
board.cache_hierarchy.ruby_system.m_latencyHistSeqr |     1126584     97.22%     97.22% |       14795      1.28%     98.50% |       17385      1.50%    100.00% |           0      0.00%    100.00% |           8      0.00%    100.00% |           3      0.00%    100.00% |           0      0.00%    100.00% |           0      0.00%    100.00% |           0      0.00%    100.00% |           0      0.00%    100.00% (Unspecified)
board.cache_hierarchy.ruby_system.m_latencyHistSeqr::total      1158775                       (Unspecified)
board.cache_hierarchy.ruby_system.m_hitLatencyHistSeqr::bucket_size           32                       (Unspecified)
board.cache_hierarchy.ruby_system.m_hitLatencyHistSeqr::max_bucket          319                       (Unspecified)
board.cache_hierarchy.ruby_system.m_hitLatencyHistSeqr::samples      1106904                       (Unspecified)
board.cache_hierarchy.ruby_system.m_hitLatencyHistSeqr::mean     1.000760                       (Unspecified)
board.cache_hierarchy.ruby_system.m_hitLatencyHistSeqr::gmean     1.000190                       (Unspecified)
board.cache_hierarchy.ruby_system.m_hitLatencyHistSeqr::stdev     0.287129                       (Unspecified)
board.cache_hierarchy.ruby_system.m_hitLatencyHistSeqr |     1106900    100.00%    100.00% |           1      0.00%    100.00% |           0      0.00%    100.00% |           0      0.00%    100.00% |           1      0.00%    100.00% |           2      0.00%    100.00% |           0      0.00%    100.00% |           0      0.00%    100.00% |           0      0.00%    100.00% |           0      0.00%    100.00% (Unspecified)
board.cache_hierarchy.ruby_system.m_hitLatencyHistSeqr::total      1106904                       (Unspecified)
board.cache_hierarchy.ruby_system.m_missLatencyHistSeqr::bucket_size          256                       (Unspecified)
board.cache_hierarchy.ruby_system.m_missLatencyHistSeqr::max_bucket         2559                       (Unspecified)
board.cache_hierarchy.ruby_system.m_missLatencyHistSeqr::samples        51871                       (Unspecified)
board.cache_hierarchy.ruby_system.m_missLatencyHistSeqr::mean   348.555763                       (Unspecified)
board.cache_hierarchy.ruby_system.m_missLatencyHistSeqr::gmean   221.015392                       (Unspecified)
board.cache_hierarchy.ruby_system.m_missLatencyHistSeqr::stdev   227.255813                       (Unspecified)
board.cache_hierarchy.ruby_system.m_missLatencyHistSeqr |       19680     37.94%     37.94% |       14795     28.52%     66.46% |       17385     33.52%     99.98% |           0      0.00%     99.98% |           8      0.02%     99.99% |           3      0.01%    100.00% |           0      0.00%    100.00% |           0      0.00%    100.00% |           0      0.00%    100.00% |           0      0.00%    100.00% (Unspecified)
board.cache_hierarchy.ruby_system.m_missLatencyHistSeqr::total        51871                       (Unspecified)
board.cache_hierarchy.ruby_system.delayVCHist.vnet_0::bucket_size          256                       # delay histogram for vnet_0 (Unspecified)
board.cache_hierarchy.ruby_system.delayVCHist.vnet_0::max_bucket         2559                       # delay histogram for vnet_0 (Unspecified)
board.cache_hierarchy.ruby_system.delayVCHist.vnet_0::samples        89645                       # delay histogram for vnet_0 (Unspecified)
board.cache_hierarchy.ruby_system.delayVCHist.vnet_0::mean   533.220860                       # delay histogram for vnet_0 (Unspecified)
board.cache_hierarchy.ruby_system.delayVCHist.vnet_0::stdev   725.740099                       # delay histogram for vnet_0 (Unspecified)
board.cache_hierarchy.ruby_system.delayVCHist.vnet_0 |       57455     64.09%     64.09% |         227      0.25%     64.34% |         305      0.34%     64.69% |         290      0.32%     65.01% |        4941      5.51%     70.52% |        9839     10.98%     81.50% |       14665     16.36%     97.85% |        1923      2.15%    100.00% |           0      0.00%    100.00% |           0      0.00%    100.00% # delay histogram for vnet_0 (Unspecified)
board.cache_hierarchy.ruby_system.delayVCHist.vnet_0::total        89645                       # delay histogram for vnet_0 (Unspecified)
board.cache_hierarchy.ruby_system.delayVCHist.vnet_1::bucket_size            4                       # delay histogram for vnet_1 (Unspecified)
board.cache_hierarchy.ruby_system.delayVCHist.vnet_1::max_bucket           39                       # delay histogram for vnet_1 (Unspecified)
board.cache_hierarchy.ruby_system.delayVCHist.vnet_1::samples        55359                       # delay histogram for vnet_1 (Unspecified)
board.cache_hierarchy.ruby_system.delayVCHist.vnet_1::mean     0.349320                       # delay histogram for vnet_1 (Unspecified)
board.cache_hierarchy.ruby_system.delayVCHist.vnet_1::stdev     1.776610                       # delay histogram for vnet_1 (Unspecified)
board.cache_hierarchy.ruby_system.delayVCHist.vnet_1 |       53259     96.21%     96.21% |         141      0.25%     96.46% |        1930      3.49%     99.95% |          15      0.03%     99.97% |          11      0.02%     99.99% |           1      0.00%    100.00% |           2      0.00%    100.00% |           0      0.00%    100.00% |           0      0.00%    100.00% |           0      0.00%    100.00% # delay histogram for vnet_1 (Unspecified)
board.cache_hierarchy.ruby_system.delayVCHist.vnet_1::total        55359                       # delay histogram for vnet_1 (Unspecified)
board.cache_hierarchy.ruby_system.delayVCHist.vnet_2::bucket_size            1                       # delay histogram for vnet_2 (Unspecified)
board.cache_hierarchy.ruby_system.delayVCHist.vnet_2::max_bucket            9                       # delay histogram for vnet_2 (Unspecified)
board.cache_hierarchy.ruby_system.delayVCHist.vnet_2::samples        35082                       # delay histogram for vnet_2 (Unspecified)
board.cache_hierarchy.ruby_system.delayVCHist.vnet_2::mean     0.000399                       # delay histogram for vnet_2 (Unspecified)
board.cache_hierarchy.ruby_system.delayVCHist.vnet_2::stdev     0.028249                       # delay histogram for vnet_2 (Unspecified)
board.cache_hierarchy.ruby_system.delayVCHist.vnet_2 |       35075     99.98%     99.98% |           0      0.00%     99.98% |           7      0.02%    100.00% |           0      0.00%    100.00% |           0      0.00%    100.00% |           0      0.00%    100.00% |           0      0.00%    100.00% |           0      0.00%    100.00% |           0      0.00%    100.00% |           0      0.00%    100.00% # delay histogram for vnet_2 (Unspecified)
board.cache_hierarchy.ruby_system.delayVCHist.vnet_2::total        35082                       # delay histogram for vnet_2 (Unspecified)
board.cache_hierarchy.ruby_system.Directory_Controller.Fetch          819      0.00%      0.00% (Unspecified)
board.cache_hierarchy.ruby_system.Directory_Controller.Memory_Data          819      0.00%      0.00% (Unspecified)
board.cache_hierarchy.ruby_system.Directory_Controller.I.Fetch          819      0.00%      0.00% (Unspecified)
board.cache_hierarchy.ruby_system.Directory_Controller.IM.Memory_Data          819      0.00%      0.00% (Unspecified)
board.cache_hierarchy.ruby_system.L1Cache_Controller.Load |        6715      2.46%      2.46% |       33321     12.21%     14.67% |       33268     12.19%     26.85% |       33259     12.18%     39.04% |       33274     12.19%     51.23% |       33275     12.19%     63.42% |       33282     12.19%     75.61% |       33291     12.20%     87.80% |       33292     12.20%    100.00% (Unspecified)
board.cache_hierarchy.ruby_system.L1Cache_Controller.Load::total       272977                       (Unspecified)
board.cache_hierarchy.ruby_system.L1Cache_Controller.Ifetch |       11566      1.81%      1.81% |       78564     12.27%     14.07% |       78581     12.27%     26.35% |       78584     12.27%     38.62% |       78603     12.27%     50.89% |       78588     12.27%     63.16% |       78587     12.27%     75.44% |       78659     12.28%     87.72% |       78649     12.28%    100.00% (Unspecified)
board.cache_hierarchy.ruby_system.L1Cache_Controller.Ifetch::total       640381                       (Unspecified)
board.cache_hierarchy.ruby_system.L1Cache_Controller.Store |       11517      4.69%      4.69% |       29423     11.99%     16.68% |       29128     11.87%     28.55% |       29128     11.87%     40.42% |       29128     11.87%     52.29% |       29128     11.87%     64.16% |       29128     11.87%     76.03% |       29419     11.99%     88.01% |       29419     11.99%    100.00% (Unspecified)
board.cache_hierarchy.ruby_system.L1Cache_Controller.Store::total       245418                       (Unspecified)
board.cache_hierarchy.ruby_system.L1Cache_Controller.Inv |          47     40.87%     40.87% |          10      8.70%     49.57% |           9      7.83%     57.39% |          10      8.70%     66.09% |          10      8.70%     74.78% |          11      9.57%     84.35% |           6      5.22%     89.57% |           6      5.22%     94.78% |           6      5.22%    100.00% (Unspecified)
board.cache_hierarchy.ruby_system.L1Cache_Controller.Inv::total          115                       (Unspecified)
board.cache_hierarchy.ruby_system.L1Cache_Controller.L1_Replacement |         628      4.61%      4.61% |        1638     12.04%     16.65% |        1611     11.84%     28.49% |        1610     11.83%     40.32% |        1611     11.84%     52.16% |        1613     11.85%     64.01% |        1614     11.86%     75.87% |        1643     12.07%     87.94% |        1641     12.06%    100.00% (Unspecified)
board.cache_hierarchy.ruby_system.L1Cache_Controller.L1_Replacement::total        13609                       (Unspecified)
board.cache_hierarchy.ruby_system.L1Cache_Controller.Fwd_GETX |          20      0.06%      0.06% |        4028     12.30%     12.36% |        4104     12.53%     24.89% |        4109     12.55%     37.44% |        4109     12.55%     49.99% |        4109     12.55%     62.54% |        4098     12.51%     75.05% |        4093     12.50%     87.55% |        4077     12.45%    100.00% (Unspecified)
board.cache_hierarchy.ruby_system.L1Cache_Controller.Fwd_GETX::total        32747                       (Unspecified)
board.cache_hierarchy.ruby_system.L1Cache_Controller.Fwd_GETS |         385     17.34%     17.34% |        1768     79.64%     96.98% |          13      0.59%     97.57% |          11      0.50%     98.06% |          11      0.50%     98.56% |          11      0.50%     99.05% |           7      0.32%     99.37% |           8      0.36%     99.73% |           6      0.27%    100.00% (Unspecified)
board.cache_hierarchy.ruby_system.L1Cache_Controller.Fwd_GETS::total         2220                       (Unspecified)
board.cache_hierarchy.ruby_system.L1Cache_Controller.Data |           0      0.00%      0.00% |           0      0.00%      0.00% |           0      0.00%      0.00% |           0      0.00%      0.00% |           0      0.00%      0.00% |           0      0.00%      0.00% |           0      0.00%      0.00% |           1    100.00%    100.00% |           0      0.00%    100.00% (Unspecified)
board.cache_hierarchy.ruby_system.L1Cache_Controller.Data::total            1                       (Unspecified)
board.cache_hierarchy.ruby_system.L1Cache_Controller.Data_Exclusive |          67      3.46%      3.46% |        1768     91.23%     94.69% |          17      0.88%     95.56% |          14      0.72%     96.28% |          14      0.72%     97.01% |          14      0.72%     97.73% |          18      0.93%     98.66% |          13      0.67%     99.33% |          13      0.67%    100.00% (Unspecified)
board.cache_hierarchy.ruby_system.L1Cache_Controller.Data_Exclusive::total         1938                       (Unspecified)
board.cache_hierarchy.ruby_system.L1Cache_Controller.DataS_fromL1 |          23      1.04%      1.04% |         318     14.32%     15.36% |        1772     79.82%     95.18% |          18      0.81%     95.99% |          18      0.81%     96.80% |          21      0.95%     97.75% |          19      0.86%     98.60% |          15      0.68%     99.28% |          16      0.72%    100.00% (Unspecified)
board.cache_hierarchy.ruby_system.L1Cache_Controller.DataS_fromL1::total         2220                       (Unspecified)
board.cache_hierarchy.ruby_system.L1Cache_Controller.Data_all_Acks |         555      1.17%      1.17% |        4266      8.96%     10.13% |        4588      9.64%     19.76% |        6348     13.33%     33.10% |        6348     13.33%     46.43% |        6348     13.33%     59.76% |        6350     13.34%     73.10% |        6410     13.46%     86.57% |        6396     13.43%    100.00% (Unspecified)
board.cache_hierarchy.ruby_system.L1Cache_Controller.Data_all_Acks::total        47609                       (Unspecified)
board.cache_hierarchy.ruby_system.L1Cache_Controller.Ack |           8      7.02%      7.02% |          10      8.77%     15.79% |          14     12.28%     28.07% |          13     11.40%     39.47% |          13     11.40%     50.88% |          12     10.53%     61.40% |          16     14.04%     75.44% |          18     15.79%     91.23% |          10      8.77%    100.00% (Unspecified)
board.cache_hierarchy.ruby_system.L1Cache_Controller.Ack::total          114                       (Unspecified)
board.cache_hierarchy.ruby_system.L1Cache_Controller.Ack_all |           8      7.69%      7.69% |          10      9.62%     17.31% |          13     12.50%     29.81% |          13     12.50%     42.31% |          13     12.50%     54.81% |          12     11.54%     66.35% |          14     13.46%     79.81% |          12     11.54%     91.35% |           9      8.65%    100.00% (Unspecified)
board.cache_hierarchy.ruby_system.L1Cache_Controller.Ack_all::total          104                       (Unspecified)
board.cache_hierarchy.ruby_system.L1Cache_Controller.WB_Ack |         223     66.77%     66.77% |          13      3.89%     70.66% |          14      4.19%     74.85% |          14      4.19%     79.04% |          14      4.19%     83.23% |          14      4.19%     87.43% |          14      4.19%     91.62% |          14      4.19%     95.81% |          14      4.19%    100.00% (Unspecified)
board.cache_hierarchy.ruby_system.L1Cache_Controller.WB_Ack::total          334                       (Unspecified)
board.cache_hierarchy.ruby_system.L1Cache_Controller.NP.Load |          92      0.55%      0.55% |        2089     12.40%     12.95% |        2096     12.44%     25.39% |        2094     12.43%     37.81% |        2095     12.43%     50.25% |        2097     12.45%     62.70% |        2100     12.46%     75.16% |        2093     12.42%     87.58% |        2092     12.42%    100.00% (Unspecified)
board.cache_hierarchy.ruby_system.L1Cache_Controller.NP.Load::total        16848                       (Unspecified)
board.cache_hierarchy.ruby_system.L1Cache_Controller.NP.Ifetch |         330     19.21%     19.21% |         188     10.94%     30.15% |         164      9.55%     39.70% |         163      9.49%     49.19% |         162      9.43%     58.61% |         163      9.49%     68.10% |         165      9.60%     77.71% |         192     11.18%     88.88% |         191     11.12%    100.00% (Unspecified)
board.cache_hierarchy.ruby_system.L1Cache_Controller.NP.Ifetch::total         1718                       (Unspecified)
board.cache_hierarchy.ruby_system.L1Cache_Controller.NP.Store |         204     38.93%     38.93% |          61     11.64%     50.57% |          27      5.15%     55.73% |          28      5.34%     61.07% |          28      5.34%     66.41% |          28      5.34%     71.76% |          26      4.96%     76.72% |          61     11.64%     88.36% |          61     11.64%    100.00% (Unspecified)
board.cache_hierarchy.ruby_system.L1Cache_Controller.NP.Store::total          524                       (Unspecified)
board.cache_hierarchy.ruby_system.L1Cache_Controller.NP.Inv |           5    100.00%    100.00% |           0      0.00%    100.00% |           0      0.00%    100.00% |           0      0.00%    100.00% |           0      0.00%    100.00% |           0      0.00%    100.00% |           0      0.00%    100.00% |           0      0.00%    100.00% |           0      0.00%    100.00% (Unspecified)
board.cache_hierarchy.ruby_system.L1Cache_Controller.NP.Inv::total            5                       (Unspecified)
board.cache_hierarchy.ruby_system.L1Cache_Controller.I.Load |          16     69.57%     69.57% |           0      0.00%     69.57% |           0      0.00%     69.57% |           0      0.00%     69.57% |           0      0.00%     69.57% |           0      0.00%     69.57% |           1      4.35%     73.91% |           3     13.04%     86.96% |           3     13.04%    100.00% (Unspecified)
board.cache_hierarchy.ruby_system.L1Cache_Controller.I.Load::total           23                       (Unspecified)
board.cache_hierarchy.ruby_system.L1Cache_Controller.I.Store |           2      0.01%      0.01% |        4014     12.29%     12.30% |        4090     12.53%     24.82% |        4095     12.54%     37.36% |        4095     12.54%     49.91% |        4095     12.54%     62.45% |        4095     12.54%     74.99% |        4090     12.53%     87.51% |        4078     12.49%    100.00% (Unspecified)
board.cache_hierarchy.ruby_system.L1Cache_Controller.I.Store::total        32654                       (Unspecified)
board.cache_hierarchy.ruby_system.L1Cache_Controller.I.L1_Replacement |          21     91.30%     91.30% |           1      4.35%     95.65% |           0      0.00%     95.65% |           0      0.00%     95.65% |           0      0.00%     95.65% |           1      4.35%    100.00% |           0      0.00%    100.00% |           0      0.00%    100.00% |           0      0.00%    100.00% (Unspecified)
board.cache_hierarchy.ruby_system.L1Cache_Controller.I.L1_Replacement::total           23                       (Unspecified)
board.cache_hierarchy.ruby_system.L1Cache_Controller.S.Load |          89      0.58%      0.58% |         357      2.34%      2.92% |        2111     13.84%     16.77% |        2109     13.83%     30.59% |        2108     13.82%     44.41% |        2105     13.80%     58.22% |        2128     13.95%     72.17% |        2122     13.91%     86.08% |        2123     13.92%    100.00% (Unspecified)
board.cache_hierarchy.ruby_system.L1Cache_Controller.S.Load::total        15252                       (Unspecified)
board.cache_hierarchy.ruby_system.L1Cache_Controller.S.Ifetch |       11235      1.76%      1.76% |       78376     12.27%     14.03% |       78417     12.28%     26.31% |       78421     12.28%     38.59% |       78441     12.28%     50.87% |       78425     12.28%     63.15% |       78422     12.28%     75.43% |       78467     12.29%     87.72% |       78458     12.28%    100.00% (Unspecified)
board.cache_hierarchy.ruby_system.L1Cache_Controller.S.Ifetch::total       638662                       (Unspecified)
board.cache_hierarchy.ruby_system.L1Cache_Controller.S.Store |           9      8.65%      8.65% |          10      9.62%     18.27% |          13     12.50%     30.77% |          13     12.50%     43.27% |          13     12.50%     55.77% |          12     11.54%     67.31% |          14     13.46%     80.77% |          11     10.58%     91.35% |           9      8.65%    100.00% (Unspecified)
board.cache_hierarchy.ruby_system.L1Cache_Controller.S.Store::total          104                       (Unspecified)
board.cache_hierarchy.ruby_system.L1Cache_Controller.S.Inv |          41     37.61%     37.61% |          10      9.17%     46.79% |           9      8.26%     55.05% |          10      9.17%     64.22% |          10      9.17%     73.39% |          11     10.09%     83.49% |           6      5.50%     88.99% |           6      5.50%     94.50% |           6      5.50%    100.00% (Unspecified)
board.cache_hierarchy.ruby_system.L1Cache_Controller.S.Inv::total          109                       (Unspecified)
board.cache_hierarchy.ruby_system.L1Cache_Controller.S.L1_Replacement |         384      2.90%      2.90% |        1624     12.25%     15.15% |        1597     12.05%     27.20% |        1596     12.04%     39.25% |        1597     12.05%     51.30% |        1598     12.06%     63.36% |        1600     12.07%     75.43% |        1629     12.29%     87.72% |        1627     12.28%    100.00% (Unspecified)
board.cache_hierarchy.ruby_system.L1Cache_Controller.S.L1_Replacement::total        13252                       (Unspecified)
board.cache_hierarchy.ruby_system.L1Cache_Controller.E.Load |         941     34.04%     34.04% |        1762     63.75%     97.79% |           8      0.29%     98.08% |           8      0.29%     98.37% |           8      0.29%     98.66% |           8      0.29%     98.95% |          10      0.36%     99.31% |           9      0.33%     99.64% |          10      0.36%    100.00% (Unspecified)
board.cache_hierarchy.ruby_system.L1Cache_Controller.E.Load::total         2764                       (Unspecified)
board.cache_hierarchy.ruby_system.L1Cache_Controller.E.Store |          27     28.12%     28.12% |           8      8.33%     36.46% |           9      9.38%     45.83% |           8      8.33%     54.17% |           8      8.33%     62.50% |           9      9.38%     71.88% |          10     10.42%     82.29% |           8      8.33%     90.62% |           9      9.38%    100.00% (Unspecified)
board.cache_hierarchy.ruby_system.L1Cache_Controller.E.Store::total           96                       (Unspecified)
board.cache_hierarchy.ruby_system.L1Cache_Controller.E.L1_Replacement |           5     38.46%     38.46% |           1      7.69%     46.15% |           1      7.69%     53.85% |           1      7.69%     61.54% |           1      7.69%     69.23% |           1      7.69%     76.92% |           1      7.69%     84.62% |           1      7.69%     92.31% |           1      7.69%    100.00% (Unspecified)
board.cache_hierarchy.ruby_system.L1Cache_Controller.E.L1_Replacement::total           13                       (Unspecified)
board.cache_hierarchy.ruby_system.L1Cache_Controller.E.Fwd_GETS |           8      0.45%      0.45% |        1756     99.04%     99.49% |           3      0.17%     99.66% |           1      0.06%     99.72% |           1      0.06%     99.77% |           1      0.06%     99.83% |           2      0.11%     99.94% |           1      0.06%    100.00% |           0      0.00%    100.00% (Unspecified)
board.cache_hierarchy.ruby_system.L1Cache_Controller.E.Fwd_GETS::total         1773                       (Unspecified)
board.cache_hierarchy.ruby_system.L1Cache_Controller.M.Load |        5577      2.34%      2.34% |       29113     12.23%     14.57% |       29053     12.20%     26.77% |       29048     12.20%     38.97% |       29063     12.21%     51.18% |       29065     12.21%     63.39% |       29043     12.20%     75.59% |       29064     12.21%     87.79% |       29064     12.21%    100.00% (Unspecified)
board.cache_hierarchy.ruby_system.L1Cache_Controller.M.Load::total       238090                       (Unspecified)
board.cache_hierarchy.ruby_system.L1Cache_Controller.M.Store |       11275      5.32%      5.32% |       25330     11.95%     17.26% |       24989     11.79%     29.05% |       24984     11.78%     40.83% |       24984     11.78%     52.61% |       24984     11.78%     64.40% |       24983     11.78%     76.18% |       25249     11.91%     88.09% |       25262     11.91%    100.00% (Unspecified)
board.cache_hierarchy.ruby_system.L1Cache_Controller.M.Store::total       212040                       (Unspecified)
board.cache_hierarchy.ruby_system.L1Cache_Controller.M.L1_Replacement |         218     67.91%     67.91% |          12      3.74%     71.65% |          13      4.05%     75.70% |          13      4.05%     79.75% |          13      4.05%     83.80% |          13      4.05%     87.85% |          13      4.05%     91.90% |          13      4.05%     95.95% |          13      4.05%    100.00% (Unspecified)
board.cache_hierarchy.ruby_system.L1Cache_Controller.M.L1_Replacement::total          321                       (Unspecified)
board.cache_hierarchy.ruby_system.L1Cache_Controller.M.Fwd_GETX |          20      0.06%      0.06% |        4028     12.30%     12.36% |        4104     12.53%     24.89% |        4109     12.55%     37.44% |        4109     12.55%     49.99% |        4109     12.55%     62.54% |        4098     12.51%     75.05% |        4093     12.50%     87.55% |        4077     12.45%    100.00% (Unspecified)
board.cache_hierarchy.ruby_system.L1Cache_Controller.M.Fwd_GETX::total        32747                       (Unspecified)
board.cache_hierarchy.ruby_system.L1Cache_Controller.M.Fwd_GETS |         377     84.34%     84.34% |          12      2.68%     87.02% |          10      2.24%     89.26% |          10      2.24%     91.50% |          10      2.24%     93.74% |          10      2.24%     95.97% |           5      1.12%     97.09% |           7      1.57%     98.66% |           6      1.34%    100.00% (Unspecified)
board.cache_hierarchy.ruby_system.L1Cache_Controller.M.Fwd_GETS::total          447                       (Unspecified)
board.cache_hierarchy.ruby_system.L1Cache_Controller.IS.Data_Exclusive |          67      3.46%      3.46% |        1768     91.23%     94.69% |          17      0.88%     95.56% |          14      0.72%     96.28% |          14      0.72%     97.01% |          14      0.72%     97.73% |          18      0.93%     98.66% |          13      0.67%     99.33% |          13      0.67%    100.00% (Unspecified)
board.cache_hierarchy.ruby_system.L1Cache_Controller.IS.Data_Exclusive::total         1938                       (Unspecified)
board.cache_hierarchy.ruby_system.L1Cache_Controller.IS.DataS_fromL1 |          23      1.04%      1.04% |         318     14.32%     15.36% |        1772     79.82%     95.18% |          18      0.81%     95.99% |          18      0.81%     96.80% |          21      0.95%     97.75% |          19      0.86%     98.60% |          15      0.68%     99.28% |          16      0.72%    100.00% (Unspecified)
board.cache_hierarchy.ruby_system.L1Cache_Controller.IS.DataS_fromL1::total         2220                       (Unspecified)
board.cache_hierarchy.ruby_system.L1Cache_Controller.IS.Data_all_Acks |         348      2.41%      2.41% |         191      1.32%      3.74% |         471      3.26%      7.00% |        2225     15.42%     22.42% |        2225     15.42%     37.84% |        2225     15.42%     53.25% |        2229     15.45%     68.70% |        2260     15.66%     84.36% |        2257     15.64%    100.00% (Unspecified)
board.cache_hierarchy.ruby_system.L1Cache_Controller.IS.Data_all_Acks::total        14431                       (Unspecified)
board.cache_hierarchy.ruby_system.L1Cache_Controller.IM.Data |           0      0.00%      0.00% |           0      0.00%      0.00% |           0      0.00%      0.00% |           0      0.00%      0.00% |           0      0.00%      0.00% |           0      0.00%      0.00% |           0      0.00%      0.00% |           1    100.00%    100.00% |           0      0.00%    100.00% (Unspecified)
board.cache_hierarchy.ruby_system.L1Cache_Controller.IM.Data::total            1                       (Unspecified)
board.cache_hierarchy.ruby_system.L1Cache_Controller.IM.Data_all_Acks |         207      0.62%      0.62% |        4075     12.28%     12.91% |        4117     12.41%     25.31% |        4123     12.43%     37.74% |        4123     12.43%     50.17% |        4123     12.43%     62.60% |        4121     12.42%     75.02% |        4150     12.51%     87.52% |        4139     12.48%    100.00% (Unspecified)
board.cache_hierarchy.ruby_system.L1Cache_Controller.IM.Data_all_Acks::total        33178                       (Unspecified)
board.cache_hierarchy.ruby_system.L1Cache_Controller.SM.Inv |           1    100.00%    100.00% |           0      0.00%    100.00% |           0      0.00%    100.00% |           0      0.00%    100.00% |           0      0.00%    100.00% |           0      0.00%    100.00% |           0      0.00%    100.00% |           0      0.00%    100.00% |           0      0.00%    100.00% (Unspecified)
board.cache_hierarchy.ruby_system.L1Cache_Controller.SM.Inv::total            1                       (Unspecified)
board.cache_hierarchy.ruby_system.L1Cache_Controller.SM.Ack |           8      7.02%      7.02% |          10      8.77%     15.79% |          14     12.28%     28.07% |          13     11.40%     39.47% |          13     11.40%     50.88% |          12     10.53%     61.40% |          16     14.04%     75.44% |          18     15.79%     91.23% |          10      8.77%    100.00% (Unspecified)
board.cache_hierarchy.ruby_system.L1Cache_Controller.SM.Ack::total          114                       (Unspecified)
board.cache_hierarchy.ruby_system.L1Cache_Controller.SM.Ack_all |           8      7.69%      7.69% |          10      9.62%     17.31% |          13     12.50%     29.81% |          13     12.50%     42.31% |          13     12.50%     54.81% |          12     11.54%     66.35% |          14     13.46%     79.81% |          12     11.54%     91.35% |           9      8.65%    100.00% (Unspecified)
board.cache_hierarchy.ruby_system.L1Cache_Controller.SM.Ack_all::total          104                       (Unspecified)
board.cache_hierarchy.ruby_system.L1Cache_Controller.M_I.Ifetch |           1    100.00%    100.00% |           0      0.00%    100.00% |           0      0.00%    100.00% |           0      0.00%    100.00% |           0      0.00%    100.00% |           0      0.00%    100.00% |           0      0.00%    100.00% |           0      0.00%    100.00% |           0      0.00%    100.00% (Unspecified)
board.cache_hierarchy.ruby_system.L1Cache_Controller.M_I.Ifetch::total            1                       (Unspecified)
board.cache_hierarchy.ruby_system.L1Cache_Controller.M_I.WB_Ack |         223     66.77%     66.77% |          13      3.89%     70.66% |          14      4.19%     74.85% |          14      4.19%     79.04% |          14      4.19%     83.23% |          14      4.19%     87.43% |          14      4.19%     91.62% |          14      4.19%     95.81% |          14      4.19%    100.00% (Unspecified)
board.cache_hierarchy.ruby_system.L1Cache_Controller.M_I.WB_Ack::total          334                       (Unspecified)
board.cache_hierarchy.ruby_system.L2Cache_Controller.L1_GET_INSTR |         213     12.40%     12.40% |         187     10.88%     23.28% |         191     11.12%     34.40% |         210     12.22%     46.62% |         229     13.33%     59.95% |         229     13.33%     73.28% |         252     14.67%     87.95% |         207     12.05%    100.00% (Unspecified)
board.cache_hierarchy.ruby_system.L2Cache_Controller.L1_GET_INSTR::total         1718                       (Unspecified)
board.cache_hierarchy.ruby_system.L2Cache_Controller.L1_GETS |        2090     12.39%     12.39% |        2144     12.71%     25.10% |        2124     12.59%     37.69% |        2091     12.39%     50.08% |        2109     12.50%     62.58% |        2105     12.48%     75.06% |        2116     12.54%     87.60% |        2092     12.40%    100.00% (Unspecified)
board.cache_hierarchy.ruby_system.L2Cache_Controller.L1_GETS::total        16871                       (Unspecified)
board.cache_hierarchy.ruby_system.L2Cache_Controller.L1_GETX |      234449     99.81%     99.81% |          53      0.02%     99.83% |          58      0.02%     99.85% |          50      0.02%     99.88% |          76      0.03%     99.91% |          92      0.04%     99.95% |          64      0.03%     99.97% |          61      0.03%    100.00% (Unspecified)
board.cache_hierarchy.ruby_system.L2Cache_Controller.L1_GETX::total       234903                       (Unspecified)
board.cache_hierarchy.ruby_system.L2Cache_Controller.L1_UPGRADE |           1      0.96%      0.96% |          31     29.81%     30.77% |          21     20.19%     50.96% |           6      5.77%     56.73% |          13     12.50%     69.23% |          17     16.35%     85.58% |          13     12.50%     98.08% |           2      1.92%    100.00% (Unspecified)
board.cache_hierarchy.ruby_system.L2Cache_Controller.L1_UPGRADE::total          104                       (Unspecified)
board.cache_hierarchy.ruby_system.L2Cache_Controller.L1_PUTX |          39     11.68%     11.68% |          45     13.47%     25.15% |          39     11.68%     36.83% |          34     10.18%     47.01% |          47     14.07%     61.08% |          55     16.47%     77.54% |          39     11.68%     89.22% |          36     10.78%    100.00% (Unspecified)
board.cache_hierarchy.ruby_system.L2Cache_Controller.L1_PUTX::total          334                       (Unspecified)
board.cache_hierarchy.ruby_system.L2Cache_Controller.Mem_Data |          92     11.23%     11.23% |         100     12.21%     23.44% |          96     11.72%     35.16% |          93     11.36%     46.52% |         113     13.80%     60.32% |         117     14.29%     74.60% |         107     13.06%     87.67% |         101     12.33%    100.00% (Unspecified)
board.cache_hierarchy.ruby_system.L2Cache_Controller.Mem_Data::total          819                       (Unspecified)
board.cache_hierarchy.ruby_system.L2Cache_Controller.WB_Data |          46     10.29%     10.29% |          88     19.69%     29.98% |          68     15.21%     45.19% |          47     10.51%     55.70% |          50     11.19%     66.89% |          55     12.30%     79.19% |          49     10.96%     90.16% |          44      9.84%    100.00% (Unspecified)
board.cache_hierarchy.ruby_system.L2Cache_Controller.WB_Data::total          447                       (Unspecified)
board.cache_hierarchy.ruby_system.L2Cache_Controller.WB_Data_clean |         214     12.07%     12.07% |         217     12.24%     24.31% |         223     12.58%     36.89% |         224     12.63%     49.52% |         222     12.52%     62.04% |         231     13.03%     75.07% |         225     12.69%     87.76% |         217     12.24%    100.00% (Unspecified)
board.cache_hierarchy.ruby_system.L2Cache_Controller.WB_Data_clean::total         1773                       (Unspecified)
board.cache_hierarchy.ruby_system.L2Cache_Controller.Unblock |         260     11.71%     11.71% |         305     13.74%     25.45% |         291     13.11%     38.56% |         271     12.21%     50.77% |         272     12.25%     63.02% |         286     12.88%     75.90% |         274     12.34%     88.24% |         261     11.76%    100.00% (Unspecified)
board.cache_hierarchy.ruby_system.L2Cache_Controller.Unblock::total         2220                       (Unspecified)
board.cache_hierarchy.ruby_system.L2Cache_Controller.Exclusive_Unblock |       32961     93.59%     93.59% |         329      0.93%     94.52% |         317      0.90%     95.42% |         292      0.83%     96.25% |         340      0.97%     97.21% |         357      1.01%     98.23% |         322      0.91%     99.14% |         302      0.86%    100.00% (Unspecified)
board.cache_hierarchy.ruby_system.L2Cache_Controller.Exclusive_Unblock::total        35220                       (Unspecified)
board.cache_hierarchy.ruby_system.L2Cache_Controller.NP.L1_GET_INSTR |          43     11.44%     11.44% |          43     11.44%     22.87% |          45     11.97%     34.84% |          50     13.30%     48.14% |          52     13.83%     61.97% |          49     13.03%     75.00% |          49     13.03%     88.03% |          45     11.97%    100.00% (Unspecified)
board.cache_hierarchy.ruby_system.L2Cache_Controller.NP.L1_GET_INSTR::total          376                       (Unspecified)
board.cache_hierarchy.ruby_system.L2Cache_Controller.NP.L1_GETS |           1      2.33%      2.33% |          12     27.91%     30.23% |           2      4.65%     34.88% |           1      2.33%     37.21% |          11     25.58%     62.79% |           1      2.33%     65.12% |           6     13.95%     79.07% |           9     20.93%    100.00% (Unspecified)
board.cache_hierarchy.ruby_system.L2Cache_Controller.NP.L1_GETS::total           43                       (Unspecified)
board.cache_hierarchy.ruby_system.L2Cache_Controller.NP.L1_GETX |          48     12.00%     12.00% |          45     11.25%     23.25% |          49     12.25%     35.50% |          42     10.50%     46.00% |          50     12.50%     58.50% |          67     16.75%     75.25% |          52     13.00%     88.25% |          47     11.75%    100.00% (Unspecified)
board.cache_hierarchy.ruby_system.L2Cache_Controller.NP.L1_GETX::total          400                       (Unspecified)
board.cache_hierarchy.ruby_system.L2Cache_Controller.SS.L1_GET_INSTR |         170     12.70%     12.70% |         143     10.68%     23.38% |         146     10.90%     34.28% |         160     11.95%     46.23% |         177     13.22%     59.45% |         180     13.44%     72.89% |         201     15.01%     87.90% |         162     12.10%    100.00% (Unspecified)
board.cache_hierarchy.ruby_system.L2Cache_Controller.SS.L1_GET_INSTR::total         1339                       (Unspecified)
board.cache_hierarchy.ruby_system.L2Cache_Controller.SS.L1_GETS |        1595     12.55%     12.55% |        1593     12.53%     25.08% |        1595     12.55%     37.62% |        1584     12.46%     50.08% |        1586     12.48%     62.56% |        1571     12.36%     74.92% |        1597     12.56%     87.48% |        1592     12.52%    100.00% (Unspecified)
board.cache_hierarchy.ruby_system.L2Cache_Controller.SS.L1_GETS::total        12713                       (Unspecified)
board.cache_hierarchy.ruby_system.L2Cache_Controller.SS.L1_GETX |           0      0.00%      0.00% |           0      0.00%      0.00% |           1    100.00%    100.00% |           0      0.00%    100.00% |           0      0.00%    100.00% |           0      0.00%    100.00% |           0      0.00%    100.00% |           0      0.00%    100.00% (Unspecified)
board.cache_hierarchy.ruby_system.L2Cache_Controller.SS.L1_GETX::total            1                       (Unspecified)
board.cache_hierarchy.ruby_system.L2Cache_Controller.SS.L1_UPGRADE |           1      0.97%      0.97% |          30     29.13%     30.10% |          21     20.39%     50.49% |           6      5.83%     56.31% |          13     12.62%     68.93% |          17     16.50%     85.44% |          13     12.62%     98.06% |           2      1.94%    100.00% (Unspecified)
board.cache_hierarchy.ruby_system.L2Cache_Controller.SS.L1_UPGRADE::total          103                       (Unspecified)
board.cache_hierarchy.ruby_system.L2Cache_Controller.M.L1_GET_INSTR |           0      0.00%      0.00% |           0      0.00%      0.00% |           0      0.00%      0.00% |           0      0.00%      0.00% |           0      0.00%      0.00% |           0      0.00%      0.00% |           1    100.00%    100.00% |           0      0.00%    100.00% (Unspecified)
board.cache_hierarchy.ruby_system.L2Cache_Controller.M.L1_GET_INSTR::total            1                       (Unspecified)
board.cache_hierarchy.ruby_system.L2Cache_Controller.M.L1_GETS |         234     12.35%     12.35% |         234     12.35%     24.70% |         236     12.45%     37.15% |         235     12.40%     49.55% |         240     12.66%     62.22% |         247     13.03%     75.25% |         239     12.61%     87.86% |         230     12.14%    100.00% (Unspecified)
board.cache_hierarchy.ruby_system.L2Cache_Controller.M.L1_GETS::total         1895                       (Unspecified)
board.cache_hierarchy.ruby_system.L2Cache_Controller.M.L1_GETX |           3      9.68%      9.68% |           2      6.45%     16.13% |           2      6.45%     22.58% |           3      9.68%     32.26% |          11     35.48%     67.74% |           7     22.58%     90.32% |           2      6.45%     96.77% |           1      3.23%    100.00% (Unspecified)
board.cache_hierarchy.ruby_system.L2Cache_Controller.M.L1_GETX::total           31                       (Unspecified)
board.cache_hierarchy.ruby_system.L2Cache_Controller.MT.L1_GETS |         260     11.71%     11.71% |         305     13.74%     25.45% |         291     13.11%     38.56% |         271     12.21%     50.77% |         272     12.25%     63.02% |         286     12.88%     75.90% |         274     12.34%     88.24% |         261     11.76%    100.00% (Unspecified)
board.cache_hierarchy.ruby_system.L2Cache_Controller.MT.L1_GETS::total         2220                       (Unspecified)
board.cache_hierarchy.ruby_system.L2Cache_Controller.MT.L1_GETX |       32674     99.78%     99.78% |           6      0.02%     99.80% |           6      0.02%     99.81% |           5      0.02%     99.83% |          15      0.05%     99.87% |          18      0.05%     99.93% |          10      0.03%     99.96% |          13      0.04%    100.00% (Unspecified)
board.cache_hierarchy.ruby_system.L2Cache_Controller.MT.L1_GETX::total        32747                       (Unspecified)
board.cache_hierarchy.ruby_system.L2Cache_Controller.MT.L1_PUTX |          39     11.68%     11.68% |          45     13.47%     25.15% |          39     11.68%     36.83% |          34     10.18%     47.01% |          47     14.07%     61.08% |          55     16.47%     77.54% |          39     11.68%     89.22% |          36     10.78%    100.00% (Unspecified)
board.cache_hierarchy.ruby_system.L2Cache_Controller.MT.L1_PUTX::total          334                       (Unspecified)
board.cache_hierarchy.ruby_system.L2Cache_Controller.ISS.Mem_Data |           1      2.33%      2.33% |          12     27.91%     30.23% |           2      4.65%     34.88% |           1      2.33%     37.21% |          11     25.58%     62.79% |           1      2.33%     65.12% |           6     13.95%     79.07% |           9     20.93%    100.00% (Unspecified)
board.cache_hierarchy.ruby_system.L2Cache_Controller.ISS.Mem_Data::total           43                       (Unspecified)
board.cache_hierarchy.ruby_system.L2Cache_Controller.IS.L1_GET_INSTR |           0      0.00%      0.00% |           1     50.00%     50.00% |           0      0.00%     50.00% |           0      0.00%     50.00% |           0      0.00%     50.00% |           0      0.00%     50.00% |           1     50.00%    100.00% |           0      0.00%    100.00% (Unspecified)
board.cache_hierarchy.ruby_system.L2Cache_Controller.IS.L1_GET_INSTR::total            2                       (Unspecified)
board.cache_hierarchy.ruby_system.L2Cache_Controller.IS.Mem_Data |          43     11.44%     11.44% |          43     11.44%     22.87% |          45     11.97%     34.84% |          50     13.30%     48.14% |          52     13.83%     61.97% |          49     13.03%     75.00% |          49     13.03%     88.03% |          45     11.97%    100.00% (Unspecified)
board.cache_hierarchy.ruby_system.L2Cache_Controller.IS.Mem_Data::total          376                       (Unspecified)
board.cache_hierarchy.ruby_system.L2Cache_Controller.IM.Mem_Data |          48     12.00%     12.00% |          45     11.25%     23.25% |          49     12.25%     35.50% |          42     10.50%     46.00% |          50     12.50%     58.50% |          67     16.75%     75.25% |          52     13.00%     88.25% |          47     11.75%    100.00% (Unspecified)
board.cache_hierarchy.ruby_system.L2Cache_Controller.IM.Mem_Data::total          400                       (Unspecified)
board.cache_hierarchy.ruby_system.L2Cache_Controller.SS_MB.L1_UPGRADE |           0      0.00%      0.00% |           1    100.00%    100.00% |           0      0.00%    100.00% |           0      0.00%    100.00% |           0      0.00%    100.00% |           0      0.00%    100.00% |           0      0.00%    100.00% |           0      0.00%    100.00% (Unspecified)
board.cache_hierarchy.ruby_system.L2Cache_Controller.SS_MB.L1_UPGRADE::total            1                       (Unspecified)
board.cache_hierarchy.ruby_system.L2Cache_Controller.SS_MB.Exclusive_Unblock |           1      0.96%      0.96% |          30     28.85%     29.81% |          22     21.15%     50.96% |           6      5.77%     56.73% |          13     12.50%     69.23% |          17     16.35%     85.58% |          13     12.50%     98.08% |           2      1.92%    100.00% (Unspecified)
board.cache_hierarchy.ruby_system.L2Cache_Controller.SS_MB.Exclusive_Unblock::total          104                       (Unspecified)
board.cache_hierarchy.ruby_system.L2Cache_Controller.MT_MB.L1_GETX |      201724    100.00%    100.00% |           0      0.00%    100.00% |           0      0.00%    100.00% |           0      0.00%    100.00% |           0      0.00%    100.00% |           0      0.00%    100.00% |           0      0.00%    100.00% |           0      0.00%    100.00% (Unspecified)
board.cache_hierarchy.ruby_system.L2Cache_Controller.MT_MB.L1_GETX::total       201724                       (Unspecified)
board.cache_hierarchy.ruby_system.L2Cache_Controller.MT_MB.Exclusive_Unblock |       32960     93.86%     93.86% |         299      0.85%     94.71% |         295      0.84%     95.55% |         286      0.81%     96.37% |         327      0.93%     97.30% |         340      0.97%     98.27% |         309      0.88%     99.15% |         300      0.85%    100.00% (Unspecified)
board.cache_hierarchy.ruby_system.L2Cache_Controller.MT_MB.Exclusive_Unblock::total        35116                       (Unspecified)
board.cache_hierarchy.ruby_system.L2Cache_Controller.MT_IIB.WB_Data |          45     10.42%     10.42% |          80     18.52%     28.94% |          64     14.81%     43.75% |          47     10.88%     54.63% |          50     11.57%     66.20% |          55     12.73%     78.94% |          48     11.11%     90.05% |          43      9.95%    100.00% (Unspecified)
board.cache_hierarchy.ruby_system.L2Cache_Controller.MT_IIB.WB_Data::total          432                       (Unspecified)
board.cache_hierarchy.ruby_system.L2Cache_Controller.MT_IIB.WB_Data_clean |         214     12.12%     12.12% |         216     12.23%     24.35% |         223     12.63%     36.98% |         218     12.34%     49.32% |         222     12.57%     61.89% |         231     13.08%     74.97% |         225     12.74%     87.71% |         217     12.29%    100.00% (Unspecified)
board.cache_hierarchy.ruby_system.L2Cache_Controller.MT_IIB.WB_Data_clean::total         1766                       (Unspecified)
board.cache_hierarchy.ruby_system.L2Cache_Controller.MT_IIB.Unblock |           1      4.55%      4.55% |           9     40.91%     45.45% |           4     18.18%     63.64% |           6     27.27%     90.91% |           0      0.00%     90.91% |           0      0.00%     90.91% |           1      4.55%     95.45% |           1      4.55%    100.00% (Unspecified)
board.cache_hierarchy.ruby_system.L2Cache_Controller.MT_IIB.Unblock::total           22                       (Unspecified)
board.cache_hierarchy.ruby_system.L2Cache_Controller.MT_IB.WB_Data |           1      6.67%      6.67% |           8     53.33%     60.00% |           4     26.67%     86.67% |           0      0.00%     86.67% |           0      0.00%     86.67% |           0      0.00%     86.67% |           1      6.67%     93.33% |           1      6.67%    100.00% (Unspecified)
board.cache_hierarchy.ruby_system.L2Cache_Controller.MT_IB.WB_Data::total           15                       (Unspecified)
board.cache_hierarchy.ruby_system.L2Cache_Controller.MT_IB.WB_Data_clean |           0      0.00%      0.00% |           1     14.29%     14.29% |           0      0.00%     14.29% |           6     85.71%    100.00% |           0      0.00%    100.00% |           0      0.00%    100.00% |           0      0.00%    100.00% |           0      0.00%    100.00% (Unspecified)
board.cache_hierarchy.ruby_system.L2Cache_Controller.MT_IB.WB_Data_clean::total            7                       (Unspecified)
board.cache_hierarchy.ruby_system.L2Cache_Controller.MT_SB.Unblock |         259     11.78%     11.78% |         296     13.47%     25.25% |         287     13.06%     38.31% |         265     12.06%     50.36% |         272     12.37%     62.74% |         286     13.01%     75.75% |         273     12.42%     88.17% |         260     11.83%    100.00% (Unspecified)
board.cache_hierarchy.ruby_system.L2Cache_Controller.MT_SB.Unblock::total         2198                       (Unspecified)
board.cache_hierarchy.ruby_system.RequestType.LD.latency_hist_seqr::bucket_size           32                       (Unspecified)
board.cache_hierarchy.ruby_system.RequestType.LD.latency_hist_seqr::max_bucket          319                       (Unspecified)
board.cache_hierarchy.ruby_system.RequestType.LD.latency_hist_seqr::samples       272977                       (Unspecified)
board.cache_hierarchy.ruby_system.RequestType.LD.latency_hist_seqr::mean     4.349224                       (Unspecified)
board.cache_hierarchy.ruby_system.RequestType.LD.latency_hist_seqr::gmean     1.274377                       (Unspecified)
board.cache_hierarchy.ruby_system.RequestType.LD.latency_hist_seqr::stdev    13.854022                       (Unspecified)
board.cache_hierarchy.ruby_system.RequestType.LD.latency_hist_seqr |      257953     94.50%     94.50% |       13076      4.79%     99.29% |        1905      0.70%     99.98% |           0      0.00%     99.98% |           1      0.00%     99.98% |           4      0.00%     99.99% |          20      0.01%     99.99% |          12      0.00%    100.00% |           5      0.00%    100.00% |           1      0.00%    100.00% (Unspecified)
board.cache_hierarchy.ruby_system.RequestType.LD.latency_hist_seqr::total       272977                       (Unspecified)
board.cache_hierarchy.ruby_system.RequestType.LD.hit_latency_hist_seqr::bucket_size            1                       (Unspecified)
board.cache_hierarchy.ruby_system.RequestType.LD.hit_latency_hist_seqr::max_bucket            9                       (Unspecified)
board.cache_hierarchy.ruby_system.RequestType.LD.hit_latency_hist_seqr::samples       256106                       (Unspecified)
board.cache_hierarchy.ruby_system.RequestType.LD.hit_latency_hist_seqr::mean     1.000035                       (Unspecified)
board.cache_hierarchy.ruby_system.RequestType.LD.hit_latency_hist_seqr::gmean     1.000024                       (Unspecified)
board.cache_hierarchy.ruby_system.RequestType.LD.hit_latency_hist_seqr::stdev     0.005928                       (Unspecified)
board.cache_hierarchy.ruby_system.RequestType.LD.hit_latency_hist_seqr |           0      0.00%      0.00% |      256097    100.00%    100.00% |           9      0.00%    100.00% |           0      0.00%    100.00% |           0      0.00%    100.00% |           0      0.00%    100.00% |           0      0.00%    100.00% |           0      0.00%    100.00% |           0      0.00%    100.00% |           0      0.00%    100.00% (Unspecified)
board.cache_hierarchy.ruby_system.RequestType.LD.hit_latency_hist_seqr::total       256106                       (Unspecified)
board.cache_hierarchy.ruby_system.RequestType.LD.miss_latency_hist_seqr::bucket_size           32                       (Unspecified)
board.cache_hierarchy.ruby_system.RequestType.LD.miss_latency_hist_seqr::max_bucket          319                       (Unspecified)
board.cache_hierarchy.ruby_system.RequestType.LD.miss_latency_hist_seqr::samples        16871                       (Unspecified)
board.cache_hierarchy.ruby_system.RequestType.LD.miss_latency_hist_seqr::mean    55.190742                       (Unspecified)
board.cache_hierarchy.ruby_system.RequestType.LD.miss_latency_hist_seqr::gmean    50.534571                       (Unspecified)
board.cache_hierarchy.ruby_system.RequestType.LD.miss_latency_hist_seqr::stdev    18.719237                       (Unspecified)
board.cache_hierarchy.ruby_system.RequestType.LD.miss_latency_hist_seqr |        1847     10.95%     10.95% |       13076     77.51%     88.45% |        1905     11.29%     99.75% |           0      0.00%     99.75% |           1      0.01%     99.75% |           4      0.02%     99.77% |          20      0.12%     99.89% |          12      0.07%     99.96% |           5      0.03%     99.99% |           1      0.01%    100.00% (Unspecified)
board.cache_hierarchy.ruby_system.RequestType.LD.miss_latency_hist_seqr::total        16871                       (Unspecified)
board.cache_hierarchy.ruby_system.RequestType.ST.latency_hist_seqr::bucket_size          256                       (Unspecified)
board.cache_hierarchy.ruby_system.RequestType.ST.latency_hist_seqr::max_bucket         2559                       (Unspecified)
board.cache_hierarchy.ruby_system.RequestType.ST.latency_hist_seqr::samples       178892                       (Unspecified)
board.cache_hierarchy.ruby_system.RequestType.ST.latency_hist_seqr::mean     1.503175                       (Unspecified)
board.cache_hierarchy.ruby_system.RequestType.ST.latency_hist_seqr::gmean     1.016186                       (Unspecified)
board.cache_hierarchy.ruby_system.RequestType.ST.latency_hist_seqr::stdev    10.850532                       (Unspecified)
board.cache_hierarchy.ruby_system.RequestType.ST.latency_hist_seqr |      178880     99.99%     99.99% |           8      0.00%    100.00% |           0      0.00%    100.00% |           0      0.00%    100.00% |           3      0.00%    100.00% |           1      0.00%    100.00% |           0      0.00%    100.00% |           0      0.00%    100.00% |           0      0.00%    100.00% |           0      0.00%    100.00% (Unspecified)
board.cache_hierarchy.ruby_system.RequestType.ST.latency_hist_seqr::total       178892                       (Unspecified)
board.cache_hierarchy.ruby_system.RequestType.ST.hit_latency_hist_seqr::bucket_size           32                       (Unspecified)
board.cache_hierarchy.ruby_system.RequestType.ST.hit_latency_hist_seqr::max_bucket          319                       (Unspecified)
board.cache_hierarchy.ruby_system.RequestType.ST.hit_latency_hist_seqr::samples       178354                       (Unspecified)
board.cache_hierarchy.ruby_system.RequestType.ST.hit_latency_hist_seqr::mean     1.004592                       (Unspecified)
board.cache_hierarchy.ruby_system.RequestType.ST.hit_latency_hist_seqr::gmean     1.001093                       (Unspecified)
board.cache_hierarchy.ruby_system.RequestType.ST.hit_latency_hist_seqr::stdev     0.715207                       (Unspecified)
board.cache_hierarchy.ruby_system.RequestType.ST.hit_latency_hist_seqr |      178350    100.00%    100.00% |           1      0.00%    100.00% |           0      0.00%    100.00% |           0      0.00%    100.00% |           1      0.00%    100.00% |           2      0.00%    100.00% |           0      0.00%    100.00% |           0      0.00%    100.00% |           0      0.00%    100.00% |           0      0.00%    100.00% (Unspecified)
board.cache_hierarchy.ruby_system.RequestType.ST.hit_latency_hist_seqr::total       178354                       (Unspecified)
board.cache_hierarchy.ruby_system.RequestType.ST.miss_latency_hist_seqr::bucket_size          256                       (Unspecified)
board.cache_hierarchy.ruby_system.RequestType.ST.miss_latency_hist_seqr::max_bucket         2559                       (Unspecified)
board.cache_hierarchy.ruby_system.RequestType.ST.miss_latency_hist_seqr::samples          538                       (Unspecified)
board.cache_hierarchy.ruby_system.RequestType.ST.miss_latency_hist_seqr::mean   166.789963                       (Unspecified)
board.cache_hierarchy.ruby_system.RequestType.ST.miss_latency_hist_seqr::gmean   145.025419                       (Unspecified)
board.cache_hierarchy.ruby_system.RequestType.ST.miss_latency_hist_seqr::stdev   107.692760                       (Unspecified)
board.cache_hierarchy.ruby_system.RequestType.ST.miss_latency_hist_seqr |         526     97.77%     97.77% |           8      1.49%     99.26% |           0      0.00%     99.26% |           0      0.00%     99.26% |           3      0.56%     99.81% |           1      0.19%    100.00% |           0      0.00%    100.00% |           0      0.00%    100.00% |           0      0.00%    100.00% |           0      0.00%    100.00% (Unspecified)
board.cache_hierarchy.ruby_system.RequestType.ST.miss_latency_hist_seqr::total          538                       (Unspecified)
board.cache_hierarchy.ruby_system.RequestType.IFETCH.latency_hist_seqr::bucket_size          256                       (Unspecified)
board.cache_hierarchy.ruby_system.RequestType.IFETCH.latency_hist_seqr::max_bucket         2559                       (Unspecified)
board.cache_hierarchy.ruby_system.RequestType.IFETCH.latency_hist_seqr::samples       640380                       (Unspecified)
board.cache_hierarchy.ruby_system.RequestType.IFETCH.latency_hist_seqr::mean     1.227785                       (Unspecified)
board.cache_hierarchy.ruby_system.RequestType.IFETCH.latency_hist_seqr::gmean     1.011212                       (Unspecified)
board.cache_hierarchy.ruby_system.RequestType.IFETCH.latency_hist_seqr::stdev     6.611991                       (Unspecified)
board.cache_hierarchy.ruby_system.RequestType.IFETCH.latency_hist_seqr |      640364    100.00%    100.00% |           9      0.00%    100.00% |           0      0.00%    100.00% |           0      0.00%    100.00% |           5      0.00%    100.00% |           2      0.00%    100.00% |           0      0.00%    100.00% |           0      0.00%    100.00% |           0      0.00%    100.00% |           0      0.00%    100.00% (Unspecified)
board.cache_hierarchy.ruby_system.RequestType.IFETCH.latency_hist_seqr::total       640380                       (Unspecified)
board.cache_hierarchy.ruby_system.RequestType.IFETCH.hit_latency_hist_seqr::bucket_size            1                       (Unspecified)
board.cache_hierarchy.ruby_system.RequestType.IFETCH.hit_latency_hist_seqr::max_bucket            9                       (Unspecified)
board.cache_hierarchy.ruby_system.RequestType.IFETCH.hit_latency_hist_seqr::samples       638662                       (Unspecified)
board.cache_hierarchy.ruby_system.RequestType.IFETCH.hit_latency_hist_seqr::mean            1                       (Unspecified)
board.cache_hierarchy.ruby_system.RequestType.IFETCH.hit_latency_hist_seqr::gmean            1                       (Unspecified)
board.cache_hierarchy.ruby_system.RequestType.IFETCH.hit_latency_hist_seqr |           0      0.00%      0.00% |      638662    100.00%    100.00% |           0      0.00%    100.00% |           0      0.00%    100.00% |           0      0.00%    100.00% |           0      0.00%    100.00% |           0      0.00%    100.00% |           0      0.00%    100.00% |           0      0.00%    100.00% |           0      0.00%    100.00% (Unspecified)
board.cache_hierarchy.ruby_system.RequestType.IFETCH.hit_latency_hist_seqr::total       638662                       (Unspecified)
board.cache_hierarchy.ruby_system.RequestType.IFETCH.miss_latency_hist_seqr::bucket_size          256                       (Unspecified)
board.cache_hierarchy.ruby_system.RequestType.IFETCH.miss_latency_hist_seqr::max_bucket         2559                       (Unspecified)
board.cache_hierarchy.ruby_system.RequestType.IFETCH.miss_latency_hist_seqr::samples         1718                       (Unspecified)
board.cache_hierarchy.ruby_system.RequestType.IFETCH.miss_latency_hist_seqr::mean    85.906286                       (Unspecified)
board.cache_hierarchy.ruby_system.RequestType.IFETCH.miss_latency_hist_seqr::gmean    63.819982                       (Unspecified)
board.cache_hierarchy.ruby_system.RequestType.IFETCH.miss_latency_hist_seqr::stdev    95.454008                       (Unspecified)
board.cache_hierarchy.ruby_system.RequestType.IFETCH.miss_latency_hist_seqr |        1702     99.07%     99.07% |           9      0.52%     99.59% |           0      0.00%     99.59% |           0      0.00%     99.59% |           5      0.29%     99.88% |           2      0.12%    100.00% |           0      0.00%    100.00% |           0      0.00%    100.00% |           0      0.00%    100.00% |           0      0.00%    100.00% (Unspecified)
board.cache_hierarchy.ruby_system.RequestType.IFETCH.miss_latency_hist_seqr::total         1718                       (Unspecified)
board.cache_hierarchy.ruby_system.RequestType.RMW_Read.latency_hist_seqr::bucket_size           32                       (Unspecified)
board.cache_hierarchy.ruby_system.RequestType.RMW_Read.latency_hist_seqr::max_bucket          319                       (Unspecified)
board.cache_hierarchy.ruby_system.RequestType.RMW_Read.latency_hist_seqr::samples          222                       (Unspecified)
board.cache_hierarchy.ruby_system.RequestType.RMW_Read.latency_hist_seqr::mean     9.427928                       (Unspecified)
board.cache_hierarchy.ruby_system.RequestType.RMW_Read.latency_hist_seqr::gmean     1.454627                       (Unspecified)
board.cache_hierarchy.ruby_system.RequestType.RMW_Read.latency_hist_seqr::stdev    34.135897                       (Unspecified)
board.cache_hierarchy.ruby_system.RequestType.RMW_Read.latency_hist_seqr |         206     92.79%     92.79% |           1      0.45%     93.24% |          10      4.50%     97.75% |           0      0.00%     97.75% |           0      0.00%     97.75% |           2      0.90%     98.65% |           2      0.90%     99.55% |           1      0.45%    100.00% |           0      0.00%    100.00% |           0      0.00%    100.00% (Unspecified)
board.cache_hierarchy.ruby_system.RequestType.RMW_Read.latency_hist_seqr::total          222                       (Unspecified)
board.cache_hierarchy.ruby_system.RequestType.RMW_Read.hit_latency_hist_seqr::bucket_size            1                       (Unspecified)
board.cache_hierarchy.ruby_system.RequestType.RMW_Read.hit_latency_hist_seqr::max_bucket            9                       (Unspecified)
board.cache_hierarchy.ruby_system.RequestType.RMW_Read.hit_latency_hist_seqr::samples          206                       (Unspecified)
board.cache_hierarchy.ruby_system.RequestType.RMW_Read.hit_latency_hist_seqr::mean     1.063107                       (Unspecified)
board.cache_hierarchy.ruby_system.RequestType.RMW_Read.hit_latency_hist_seqr::gmean     1.044713                       (Unspecified)
board.cache_hierarchy.ruby_system.RequestType.RMW_Read.hit_latency_hist_seqr::stdev     0.243747                       (Unspecified)
board.cache_hierarchy.ruby_system.RequestType.RMW_Read.hit_latency_hist_seqr |           0      0.00%      0.00% |         193     93.69%     93.69% |          13      6.31%    100.00% |           0      0.00%    100.00% |           0      0.00%    100.00% |           0      0.00%    100.00% |           0      0.00%    100.00% |           0      0.00%    100.00% |           0      0.00%    100.00% |           0      0.00%    100.00% (Unspecified)
board.cache_hierarchy.ruby_system.RequestType.RMW_Read.hit_latency_hist_seqr::total          206                       (Unspecified)
board.cache_hierarchy.ruby_system.RequestType.RMW_Read.miss_latency_hist_seqr::bucket_size           32                       (Unspecified)
board.cache_hierarchy.ruby_system.RequestType.RMW_Read.miss_latency_hist_seqr::max_bucket          319                       (Unspecified)
board.cache_hierarchy.ruby_system.RequestType.RMW_Read.miss_latency_hist_seqr::samples           16                       (Unspecified)
board.cache_hierarchy.ruby_system.RequestType.RMW_Read.miss_latency_hist_seqr::mean   117.125000                       (Unspecified)
board.cache_hierarchy.ruby_system.RequestType.RMW_Read.miss_latency_hist_seqr::gmean   103.179366                       (Unspecified)
board.cache_hierarchy.ruby_system.RequestType.RMW_Read.miss_latency_hist_seqr::stdev    61.923474                       (Unspecified)
board.cache_hierarchy.ruby_system.RequestType.RMW_Read.miss_latency_hist_seqr |           0      0.00%      0.00% |           1      6.25%      6.25% |          10     62.50%     68.75% |           0      0.00%     68.75% |           0      0.00%     68.75% |           2     12.50%     81.25% |           2     12.50%     93.75% |           1      6.25%    100.00% |           0      0.00%    100.00% |           0      0.00%    100.00% (Unspecified)
board.cache_hierarchy.ruby_system.RequestType.RMW_Read.miss_latency_hist_seqr::total           16                       (Unspecified)
board.cache_hierarchy.ruby_system.RequestType.Locked_RMW_Read.latency_hist_seqr::bucket_size           64                       (Unspecified)
board.cache_hierarchy.ruby_system.RequestType.Locked_RMW_Read.latency_hist_seqr::max_bucket          639                       (Unspecified)
board.cache_hierarchy.ruby_system.RequestType.Locked_RMW_Read.latency_hist_seqr::samples        33152                       (Unspecified)
board.cache_hierarchy.ruby_system.RequestType.Locked_RMW_Read.latency_hist_seqr::mean   510.076104                       (Unspecified)
board.cache_hierarchy.ruby_system.RequestType.Locked_RMW_Read.latency_hist_seqr::gmean   469.507968                       (Unspecified)
board.cache_hierarchy.ruby_system.RequestType.Locked_RMW_Read.latency_hist_seqr::stdev    86.526984                       (Unspecified)
board.cache_hierarchy.ruby_system.RequestType.Locked_RMW_Read.latency_hist_seqr |         463      1.40%      1.40% |         245      0.74%      2.14% |         129      0.39%      2.52% |         158      0.48%      3.00% |         189      0.57%      3.57% |         294      0.89%      4.46% |         295      0.89%      5.35% |       13994     42.21%     47.56% |       17385     52.44%    100.00% |           0      0.00%    100.00% (Unspecified)
board.cache_hierarchy.ruby_system.RequestType.Locked_RMW_Read.latency_hist_seqr::total        33152                       (Unspecified)
board.cache_hierarchy.ruby_system.RequestType.Locked_RMW_Read.hit_latency_hist_seqr::bucket_size            1                       (Unspecified)
board.cache_hierarchy.ruby_system.RequestType.Locked_RMW_Read.hit_latency_hist_seqr::max_bucket            9                       (Unspecified)
board.cache_hierarchy.ruby_system.RequestType.Locked_RMW_Read.hit_latency_hist_seqr::samples          424                       (Unspecified)
board.cache_hierarchy.ruby_system.RequestType.Locked_RMW_Read.hit_latency_hist_seqr::mean            1                       (Unspecified)
board.cache_hierarchy.ruby_system.RequestType.Locked_RMW_Read.hit_latency_hist_seqr::gmean            1                       (Unspecified)
board.cache_hierarchy.ruby_system.RequestType.Locked_RMW_Read.hit_latency_hist_seqr |           0      0.00%      0.00% |         424    100.00%    100.00% |           0      0.00%    100.00% |           0      0.00%    100.00% |           0      0.00%    100.00% |           0      0.00%    100.00% |           0      0.00%    100.00% |           0      0.00%    100.00% |           0      0.00%    100.00% |           0      0.00%    100.00% (Unspecified)
board.cache_hierarchy.ruby_system.RequestType.Locked_RMW_Read.hit_latency_hist_seqr::total          424                       (Unspecified)
board.cache_hierarchy.ruby_system.RequestType.Locked_RMW_Read.miss_latency_hist_seqr::bucket_size           64                       (Unspecified)
board.cache_hierarchy.ruby_system.RequestType.Locked_RMW_Read.miss_latency_hist_seqr::max_bucket          639                       (Unspecified)
board.cache_hierarchy.ruby_system.RequestType.Locked_RMW_Read.miss_latency_hist_seqr::samples        32728                       (Unspecified)
board.cache_hierarchy.ruby_system.RequestType.Locked_RMW_Read.miss_latency_hist_seqr::mean   516.671321                       (Unspecified)
board.cache_hierarchy.ruby_system.RequestType.Locked_RMW_Read.miss_latency_hist_seqr::gmean   508.457686                       (Unspecified)
board.cache_hierarchy.ruby_system.RequestType.Locked_RMW_Read.miss_latency_hist_seqr::stdev    64.674946                       (Unspecified)
board.cache_hierarchy.ruby_system.RequestType.Locked_RMW_Read.miss_latency_hist_seqr |          39      0.12%      0.12% |         245      0.75%      0.87% |         129      0.39%      1.26% |         158      0.48%      1.74% |         189      0.58%      2.32% |         294      0.90%      3.22% |         295      0.90%      4.12% |       13994     42.76%     46.88% |       17385     53.12%    100.00% |           0      0.00%    100.00% (Unspecified)
board.cache_hierarchy.ruby_system.RequestType.Locked_RMW_Read.miss_latency_hist_seqr::total        32728                       (Unspecified)
board.cache_hierarchy.ruby_system.RequestType.Locked_RMW_Write.latency_hist_seqr::bucket_size            1                       (Unspecified)
board.cache_hierarchy.ruby_system.RequestType.Locked_RMW_Write.latency_hist_seqr::max_bucket            9                       (Unspecified)
board.cache_hierarchy.ruby_system.RequestType.Locked_RMW_Write.latency_hist_seqr::samples        33152                       (Unspecified)
board.cache_hierarchy.ruby_system.RequestType.Locked_RMW_Write.latency_hist_seqr::mean            1                       (Unspecified)
board.cache_hierarchy.ruby_system.RequestType.Locked_RMW_Write.latency_hist_seqr::gmean            1                       (Unspecified)
board.cache_hierarchy.ruby_system.RequestType.Locked_RMW_Write.latency_hist_seqr |           0      0.00%      0.00% |       33152    100.00%    100.00% |           0      0.00%    100.00% |           0      0.00%    100.00% |           0      0.00%    100.00% |           0      0.00%    100.00% |           0      0.00%    100.00% |           0      0.00%    100.00% |           0      0.00%    100.00% |           0      0.00%    100.00% (Unspecified)
board.cache_hierarchy.ruby_system.RequestType.Locked_RMW_Write.latency_hist_seqr::total        33152                       (Unspecified)
board.cache_hierarchy.ruby_system.RequestType.Locked_RMW_Write.hit_latency_hist_seqr::bucket_size            1                       (Unspecified)
board.cache_hierarchy.ruby_system.RequestType.Locked_RMW_Write.hit_latency_hist_seqr::max_bucket            9                       (Unspecified)
board.cache_hierarchy.ruby_system.RequestType.Locked_RMW_Write.hit_latency_hist_seqr::samples        33152                       (Unspecified)
board.cache_hierarchy.ruby_system.RequestType.Locked_RMW_Write.hit_latency_hist_seqr::mean            1                       (Unspecified)
board.cache_hierarchy.ruby_system.RequestType.Locked_RMW_Write.hit_latency_hist_seqr::gmean            1                       (Unspecified)
board.cache_hierarchy.ruby_system.RequestType.Locked_RMW_Write.hit_latency_hist_seqr |           0      0.00%      0.00% |       33152    100.00%    100.00% |           0      0.00%    100.00% |           0      0.00%    100.00% |           0      0.00%    100.00% |           0      0.00%    100.00% |           0      0.00%    100.00% |           0      0.00%    100.00% |           0      0.00%    100.00% |           0      0.00%    100.00% (Unspecified)
board.cache_hierarchy.ruby_system.RequestType.Locked_RMW_Write.hit_latency_hist_seqr::total        33152                       (Unspecified)
board.cache_hierarchy.ruby_system.directory_controllers.power_state.pwrStateResidencyTicks::UNDEFINED   1139841351                       # Cumulative time (in ticks) in various power states (Tick)
board.cache_hierarchy.ruby_system.directory_controllers.requestToDir.m_msg_count          819                       # Number of messages passed the buffer (Count)
board.cache_hierarchy.ruby_system.directory_controllers.requestToDir.m_buf_msgs     0.000310                       # Average number of messages in buffer ((Count/Tick))
board.cache_hierarchy.ruby_system.directory_controllers.requestToMemory.m_msg_count          819                       # Number of messages passed the buffer (Count)
board.cache_hierarchy.ruby_system.directory_controllers.requestToMemory.m_buf_msgs     0.000310                       # Average number of messages in buffer ((Count/Tick))
board.cache_hierarchy.ruby_system.directory_controllers.requestToMemory.m_stall_time          666                       # Total number of ticks messages were stalled in this buffer (Tick)
board.cache_hierarchy.ruby_system.directory_controllers.requestToMemory.m_avg_stall_time     0.813187                       # Average stall ticks per message ((Tick/Count))
board.cache_hierarchy.ruby_system.directory_controllers.responseFromDir.m_msg_count          819                       # Number of messages passed the buffer (Count)
board.cache_hierarchy.ruby_system.directory_controllers.responseFromDir.m_buf_msgs     0.000310                       # Average number of messages in buffer ((Count/Tick))
board.cache_hierarchy.ruby_system.directory_controllers.responseFromMemory.m_msg_count          819                       # Number of messages passed the buffer (Count)
board.cache_hierarchy.ruby_system.directory_controllers.responseFromMemory.m_buf_msgs     0.000461                       # Average number of messages in buffer ((Count/Tick))
board.cache_hierarchy.ruby_system.l1_controllers0.fullyBusyCycles           61                       # cycles for which number of transistions == max transitions (Unspecified)
board.cache_hierarchy.ruby_system.l1_controllers0.delayHistogram::samples         1336                       # delay_histogram (Unspecified)
board.cache_hierarchy.ruby_system.l1_controllers0.delayHistogram::mean     0.095808                       # delay_histogram (Unspecified)
board.cache_hierarchy.ruby_system.l1_controllers0.delayHistogram::stdev     0.787418                       # delay_histogram (Unspecified)
board.cache_hierarchy.ruby_system.l1_controllers0.delayHistogram::0-1         1312     98.20%     98.20% # delay_histogram (Unspecified)
board.cache_hierarchy.ruby_system.l1_controllers0.delayHistogram::2-3            6      0.45%     98.65% # delay_histogram (Unspecified)
board.cache_hierarchy.ruby_system.l1_controllers0.delayHistogram::4-5            5      0.37%     99.03% # delay_histogram (Unspecified)
board.cache_hierarchy.ruby_system.l1_controllers0.delayHistogram::6-7            6      0.45%     99.48% # delay_histogram (Unspecified)
board.cache_hierarchy.ruby_system.l1_controllers0.delayHistogram::8-9            5      0.37%     99.85% # delay_histogram (Unspecified)
board.cache_hierarchy.ruby_system.l1_controllers0.delayHistogram::10-11            2      0.15%    100.00% # delay_histogram (Unspecified)
board.cache_hierarchy.ruby_system.l1_controllers0.delayHistogram::total         1336                       # delay_histogram (Unspecified)
[...]
board.processor.cores8.core.executeStats0.numCCRegWrites        75746                       # Number of times the CC registers were written (Count)
board.processor.cores8.core.executeStats0.numFpRegReads          664                       # Number of times the floating registers were read (Count)
board.processor.cores8.core.executeStats0.numFpRegWrites          399                       # Number of times the floating registers were written (Count)
board.processor.cores8.core.executeStats0.numIntRegReads       413019                       # Number of times the integer registers were read (Count)
board.processor.cores8.core.executeStats0.numIntRegWrites       287705                       # Number of times the integer registers were written (Count)
board.processor.cores8.core.executeStats0.numMemRefs       124551                       # Number of memory refs (Count)
board.processor.cores8.core.executeStats0.numMiscRegReads       175393                       # Number of times the Misc registers were read (Count)
board.processor.cores8.core.executeStats0.numMiscRegWrites            1                       # Number of times the Misc registers were written (Count)
board.processor.cores8.core.executeStats0.numVecAluAccesses            0                       # Number of vector alu accesses (Count)
board.processor.cores8.core.executeStats0.numDiscardedOps            0                       # Number of ops (including micro ops) which were discarded before commit (Count)
board.processor.cores8.core.fetch.predictedBranches        45722                       # Number of branches that fetch has predicted taken (Count)
board.processor.cores8.core.fetch.cycles      2456088                       # Number of cycles fetch has run and was not squashing or blocked (Cycle)
board.processor.cores8.core.fetch.squashCycles         8728                       # Number of cycles fetch has spent squashing (Cycle)
board.processor.cores8.core.fetch.miscStallCycles           27                       # Number of cycles fetch has spent waiting on interrupts, or bad addresses, or out of MSHRs (Cycle)
board.processor.cores8.core.fetch.pendingTrapStallCycles          158                       # Number of stall cycles due to pending traps (Cycle)
board.processor.cores8.core.fetch.icacheWaitRetryStallCycles           22                       # Number of stall cycles due to full MSHR (Cycle)
board.processor.cores8.core.fetch.cacheLines        78689                       # Number of cache lines fetched (Count)
board.processor.cores8.core.fetch.icacheSquashes         4211                       # Number of outstanding Icache misses that were squashed (Count)
board.processor.cores8.core.fetch.nisnDist::samples      2543994                       # Number of instructions fetched each cycle (Total) (Count)
board.processor.cores8.core.fetch.nisnDist::mean     0.289619                       # Number of instructions fetched each cycle (Total) (Count)
board.processor.cores8.core.fetch.nisnDist::stdev     1.373961                       # Number of instructions fetched each cycle (Total) (Count)
board.processor.cores8.core.fetch.nisnDist::underflows            0      0.00%      0.00% # Number of instructions fetched each cycle (Total) (Count)
board.processor.cores8.core.fetch.nisnDist::0      2417208     95.02%     95.02% # Number of instructions fetched each cycle (Total) (Count)
board.processor.cores8.core.fetch.nisnDist::1         6233      0.25%     95.26% # Number of instructions fetched each cycle (Total) (Count)
board.processor.cores8.core.fetch.nisnDist::2        18516      0.73%     95.99% # Number of instructions fetched each cycle (Total) (Count)
board.processor.cores8.core.fetch.nisnDist::3         2183      0.09%     96.07% # Number of instructions fetched each cycle (Total) (Count)
board.processor.cores8.core.fetch.nisnDist::4        12398      0.49%     96.56% # Number of instructions fetched each cycle (Total) (Count)
board.processor.cores8.core.fetch.nisnDist::5         4243      0.17%     96.73% # Number of instructions fetched each cycle (Total) (Count)
board.processor.cores8.core.fetch.nisnDist::6        14440      0.57%     97.30% # Number of instructions fetched each cycle (Total) (Count)
board.processor.cores8.core.fetch.nisnDist::7        20656      0.81%     98.11% # Number of instructions fetched each cycle (Total) (Count)
board.processor.cores8.core.fetch.nisnDist::8        48117      1.89%    100.00% # Number of instructions fetched each cycle (Total) (Count)
board.processor.cores8.core.fetch.nisnDist::overflows            0      0.00%    100.00% # Number of instructions fetched each cycle (Total) (Count)
board.processor.cores8.core.fetch.nisnDist::min_value            0                       # Number of instructions fetched each cycle (Total) (Count)
board.processor.cores8.core.fetch.nisnDist::max_value            8                       # Number of instructions fetched each cycle (Total) (Count)
board.processor.cores8.core.fetch.nisnDist::total      2543994                       # Number of instructions fetched each cycle (Total) (Count)
board.processor.cores8.core.fetchStats0.numInsts       493317                       # Number of instructions fetched (thread level) (Count)
board.processor.cores8.core.fetchStats0.numOps            0                       # Number of ops (including micro ops) fetched (thread level) (Count)
board.processor.cores8.core.fetchStats0.fetchRate     0.193712                       # Number of inst fetches per cycle ((Count/Cycle))
board.processor.cores8.core.fetchStats0.numBranches        46365                       # Number of branches fetched (Count)
board.processor.cores8.core.fetchStats0.branchRate     0.018206                       # Number of branch fetches per cycle (Ratio)
board.processor.cores8.core.fetchStats0.icacheStallCycles        83335                       # ICache total stall cycles (Cycle)
board.processor.cores8.core.fetchStats0.numFetchSuspends            0                       # Number of times Execute suspended instruction fetching (Count)
board.processor.cores8.core.iew.idleCycles            0                       # Number of cycles IEW is idle (Cycle)
board.processor.cores8.core.iew.squashCycles         4239                       # Number of cycles IEW is squashing (Cycle)
board.processor.cores8.core.iew.blockCycles      2308128                       # Number of cycles IEW is blocking (Cycle)
board.processor.cores8.core.iew.unblockCycles         9255                       # Number of cycles IEW is unblocking (Cycle)
board.processor.cores8.core.iew.dispatchedInsts       553994                       # Number of instructions dispatched to IQ (Count)
board.processor.cores8.core.iew.dispSquashedInsts           16                       # Number of squashed instructions skipped by dispatch (Count)
board.processor.cores8.core.iew.dispLoadInsts       148511                       # Number of dispatched load instructions (Count)
board.processor.cores8.core.iew.dispStoreInsts        66520                       # Number of dispatched store instructions (Count)
board.processor.cores8.core.iew.dispNonSpecInsts         8239                       # Number of dispatched non-speculative instructions (Count)
board.processor.cores8.core.iew.iqFullEvents         6168                       # Number of times the IQ has become full, causing a stall (Count)
board.processor.cores8.core.iew.lsqFullEvents         1033                       # Number of times the LSQ has become full, causing a stall (Count)
board.processor.cores8.core.iew.memOrderViolationEvents         4102                       # Number of memory order violations (Count)
board.processor.cores8.core.iew.predictedTakenIncorrect            8                       # Number of branches that were predicted taken incorrectly (Count)
board.processor.cores8.core.iew.predictedNotTakenIncorrect          128                       # Number of branches that were predicted not taken incorrectly (Count)
board.processor.cores8.core.iew.branchMispredicts          136                       # Number of branch mispredicts detected at execute (Count)
board.processor.cores8.core.iew.instsToCommit       376578                       # Cumulative count of insts sent to commit (Count)
board.processor.cores8.core.iew.writebackCount       376452                       # Cumulative count of insts written-back (Count)
board.processor.cores8.core.iew.producerInst       273185                       # Number of instructions producing a value (Count)
board.processor.cores8.core.iew.consumerInst       402149                       # Number of instructions consuming a value (Count)
board.processor.cores8.core.iew.wbRate       0.147822                       # Insts written-back per cycle ((Count/Cycle))
board.processor.cores8.core.iew.wbFanout     0.679313                       # Average fanout of values written-back ((Count/Count))
board.processor.cores8.core.interrupts.clk_domain.clock         5328                       # Clock period in ticks (Tick)
board.processor.cores8.core.lsq0.forwLoads         8382                       # Number of loads that had data forwarded from stores (Count)
board.processor.cores8.core.lsq0.squashedLoads        90567                       # Number of loads squashed (Count)
board.processor.cores8.core.lsq0.ignoredResponses            0                       # Number of memory responses ignored because the instruction is squashed (Count)
board.processor.cores8.core.lsq0.memOrderViolation         4102                       # Number of memory ordering violations (Count)
board.processor.cores8.core.lsq0.squashedStores        41216                       # Number of stores squashed (Count)
board.processor.cores8.core.lsq0.rescheduledLoads            0                       # Number of loads that were rescheduled (Count)
board.processor.cores8.core.lsq0.blockedByCache            2                       # Number of times an access to memory failed due to the cache being blocked (Count)
board.processor.cores8.core.lsq0.loadToUse::samples        57944                       # Distribution of cycle latency between the first time a load is issued and its completion (Unspecified)
board.processor.cores8.core.lsq0.loadToUse::mean    41.362678                       # Distribution of cycle latency between the first time a load is issued and its completion (Unspecified)
board.processor.cores8.core.lsq0.loadToUse::stdev   133.587542                       # Distribution of cycle latency between the first time a load is issued and its completion (Unspecified)
board.processor.cores8.core.lsq0.loadToUse::0-9        51755     89.32%     89.32% # Distribution of cycle latency between the first time a load is issued and its completion (Unspecified)
board.processor.cores8.core.lsq0.loadToUse::10-19          257      0.44%     89.76% # Distribution of cycle latency between the first time a load is issued and its completion (Unspecified)
board.processor.cores8.core.lsq0.loadToUse::20-29            2      0.00%     89.77% # Distribution of cycle latency between the first time a load is issued and its completion (Unspecified)
board.processor.cores8.core.lsq0.loadToUse::50-59         1794      3.10%     92.86% # Distribution of cycle latency between the first time a load is issued and its completion (Unspecified)
board.processor.cores8.core.lsq0.loadToUse::60-69           41      0.07%     92.93% # Distribution of cycle latency between the first time a load is issued and its completion (Unspecified)
board.processor.cores8.core.lsq0.loadToUse::80-89           15      0.03%     92.96% # Distribution of cycle latency between the first time a load is issued and its completion (Unspecified)
board.processor.cores8.core.lsq0.loadToUse::90-99            6      0.01%     92.97% # Distribution of cycle latency between the first time a load is issued and its completion (Unspecified)
board.processor.cores8.core.lsq0.loadToUse::100-109            1      0.00%     92.97% # Distribution of cycle latency between the first time a load is issued and its completion (Unspecified)
board.processor.cores8.core.lsq0.loadToUse::120-129            9      0.02%     92.99% # Distribution of cycle latency between the first time a load is issued and its completion (Unspecified)
board.processor.cores8.core.lsq0.loadToUse::160-169            2      0.00%     92.99% # Distribution of cycle latency between the first time a load is issued and its completion (Unspecified)
board.processor.cores8.core.lsq0.loadToUse::180-189           10      0.02%     93.01% # Distribution of cycle latency between the first time a load is issued and its completion (Unspecified)
board.processor.cores8.core.lsq0.loadToUse::200-209           11      0.02%     93.03% # Distribution of cycle latency between the first time a load is issued and its completion (Unspecified)
board.processor.cores8.core.lsq0.loadToUse::210-219            2      0.00%     93.03% # Distribution of cycle latency between the first time a load is issued and its completion (Unspecified)
board.processor.cores8.core.lsq0.loadToUse::240-249            1      0.00%     93.03% # Distribution of cycle latency between the first time a load is issued and its completion (Unspecified)
board.processor.cores8.core.lsq0.loadToUse::250-259            2      0.00%     93.03% # Distribution of cycle latency between the first time a load is issued and its completion (Unspecified)
board.processor.cores8.core.lsq0.loadToUse::260-269           12      0.02%     93.06% # Distribution of cycle latency between the first time a load is issued and its completion (Unspecified)
board.processor.cores8.core.lsq0.loadToUse::270-279            1      0.00%     93.06% # Distribution of cycle latency between the first time a load is issued and its completion (Unspecified)
board.processor.cores8.core.lsq0.loadToUse::290-299           15      0.03%     93.08% # Distribution of cycle latency between the first time a load is issued and its completion (Unspecified)
board.processor.cores8.core.lsq0.loadToUse::overflows         4008      6.92%    100.00% # Distribution of cycle latency between the first time a load is issued and its completion (Unspecified)
board.processor.cores8.core.lsq0.loadToUse::min_value            2                       # Distribution of cycle latency between the first time a load is issued and its completion (Unspecified)
board.processor.cores8.core.lsq0.loadToUse::max_value          558                       # Distribution of cycle latency between the first time a load is issued and its completion (Unspecified)
board.processor.cores8.core.lsq0.loadToUse::total        57944                       # Distribution of cycle latency between the first time a load is issued and its completion (Unspecified)
board.processor.cores8.core.mmu.dtb.rdAccesses        90933                       # TLB accesses on read requests (Count)
board.processor.cores8.core.mmu.dtb.wrAccesses        33606                       # TLB accesses on write requests (Count)
board.processor.cores8.core.mmu.dtb.rdMisses           90                       # TLB misses on read requests (Count)
board.processor.cores8.core.mmu.dtb.wrMisses           17                       # TLB misses on write requests (Count)
board.processor.cores8.core.mmu.dtb.walker.power_state.pwrStateResidencyTicks::UNDEFINED   1139841351                       # Cumulative time (in ticks) in various power states (Tick)
board.processor.cores8.core.mmu.itb.rdAccesses            0                       # TLB accesses on read requests (Count)
board.processor.cores8.core.mmu.itb.wrAccesses        78716                       # TLB accesses on write requests (Count)
board.processor.cores8.core.mmu.itb.rdMisses            0                       # TLB misses on read requests (Count)
board.processor.cores8.core.mmu.itb.wrMisses           78                       # TLB misses on write requests (Count)
board.processor.cores8.core.mmu.itb.walker.power_state.pwrStateResidencyTicks::UNDEFINED   1139841351                       # Cumulative time (in ticks) in various power states (Tick)
board.processor.cores8.core.power_state.pwrStateResidencyTicks::ON   1139841351                       # Cumulative time (in ticks) in various power states (Tick)
board.processor.cores8.core.rename.squashCycles         4239                       # Number of cycles rename is squashing (Cycle)
board.processor.cores8.core.rename.idleCycles        58731                       # Number of cycles rename is idle (Cycle)
board.processor.cores8.core.rename.blockCycles      2352456                       # Number of cycles rename is blocking (Cycle)
board.processor.cores8.core.rename.serializeStallCycles            0                       # count of cycles rename stalled for serializing inst (Cycle)
board.processor.cores8.core.rename.runCycles        81220                       # Number of cycles rename is running (Cycle)
board.processor.cores8.core.rename.unblockCycles        47348                       # Number of cycles rename is unblocking (Cycle)
board.processor.cores8.core.rename.renamedInsts       603569                       # Number of instructions processed by rename (Count)
board.processor.cores8.core.rename.ROBFullEvents            4                       # Number of times rename has blocked due to ROB full (Count)
board.processor.cores8.core.rename.IQFullEvents        37026                       # Number of times rename has blocked due to IQ full (Count)
board.processor.cores8.core.rename.LQFullEvents           67                       # Number of times rename has blocked due to LQ full (Count)
board.processor.cores8.core.rename.SQFullEvents         8145                       # Number of times rename has blocked due to SQ full (Count)
board.processor.cores8.core.rename.renamedOperands       804634                       # Number of destination operands rename has renamed (Count)
board.processor.cores8.core.rename.lookups      1829381                       # Number of register rename lookups that rename has made (Count)
board.processor.cores8.core.rename.intLookups       703979                       # Number of integer rename lookups (Count)
board.processor.cores8.core.rename.fpLookups          669                       # Number of floating rename lookups (Count)
board.processor.cores8.core.rename.committedMaps       291275                       # Number of HB maps that are committed (Count)
board.processor.cores8.core.rename.undoneMaps       513359                       # Number of HB maps that are undone due to squashing (Count)
board.processor.cores8.core.rename.serializing            0                       # count of serializing insts renamed (Count)
board.processor.cores8.core.rename.tempSerializing            0                       # count of temporary serializing insts renamed (Count)
board.processor.cores8.core.rename.skidInsts        97787                       # count of insts added to the skid buffer (Count)
board.processor.cores8.core.rob.reads         3047873                       # The number of ROB reads (Count)
board.processor.cores8.core.rob.writes        1153170                       # The number of ROB writes (Count)
board.processor.cores8.core.thread_0.numInsts       142159                       # Number of Instructions committed (Count)
board.processor.cores8.core.thread_0.numOps       214784                       # Number of Ops committed (Count)
board.processor.cores8.core.thread_0.numMemRefs            0                       # Number of Memory References (Count)
board.workload.inst.arm                             0                       # number of arm instructions executed (Count)
board.workload.inst.quiesce                         0                       # number of quiesce instructions executed (Count)

---------- End Simulation Statistics   ----------
