
---------- Begin Simulation Statistics ----------
simSeconds                                   0.000814                       # Number of seconds simulated (Second)
simTicks                                    814320531                       # Number of ticks simulated (Tick)
finalTick                                  1070713548                       # Number of ticks from beginning of simulation (restored from checkpoints and never reset) (Tick)
simFreq                                  1000000000000                       # The number of ticks per simulated second ((Tick/Second))
hostSeconds                                     20.47                       # Real time elapsed on the host (Second)
hostTickRate                                 39786075                       # The number of ticks simulated per host second (ticks/s) ((Tick/Second))
hostMemory                                    1547408                       # Number of bytes of host memory used (Byte)
simInsts                                      1572253                       # Number of instructions simulated (Count)
simOps                                        2418812                       # Number of ops (including micro ops) simulated (Count)
hostInstRate                                    76817                       # Simulator instruction rate (inst/s) ((Count/Second))
hostOpRate                                     118177                       # Simulator op (including micro ops) rate (op/s) ((Count/Second))
board.cache_hierarchy.ruby_system.delayHistogram::bucket_size           32                       # delay histogram for all message (Unspecified)
board.cache_hierarchy.ruby_system.delayHistogram::max_bucket          319                       # delay histogram for all message (Unspecified)
board.cache_hierarchy.ruby_system.delayHistogram::samples       159663                       # delay histogram for all message (Unspecified)
board.cache_hierarchy.ruby_system.delayHistogram::mean    38.943255                       # delay histogram for all message (Unspecified)
board.cache_hierarchy.ruby_system.delayHistogram::stdev    80.998682                       # delay histogram for all message (Unspecified)
board.cache_hierarchy.ruby_system.delayHistogram |      127366     79.77%     79.77% |          83      0.05%     79.82% |        3902      2.44%     82.27% |        2511      1.57%     83.84% |         822      0.51%     84.36% |        6499      4.07%     88.43% |        6411      4.02%     92.44% |        6072      3.80%     96.24% |        5997      3.76%    100.00% |           0      0.00%    100.00% # delay histogram for all message (Unspecified)
board.cache_hierarchy.ruby_system.delayHistogram::total       159663                       # delay histogram for all message (Unspecified)
board.cache_hierarchy.ruby_system.m_outstandReqHistSeqr::bucket_size            2                       (Unspecified)
board.cache_hierarchy.ruby_system.m_outstandReqHistSeqr::max_bucket           19                       (Unspecified)
board.cache_hierarchy.ruby_system.m_outstandReqHistSeqr::samples      1137081                       (Unspecified)
board.cache_hierarchy.ruby_system.m_outstandReqHistSeqr::mean     1.206023                       (Unspecified)
board.cache_hierarchy.ruby_system.m_outstandReqHistSeqr::gmean     1.150825                       (Unspecified)
board.cache_hierarchy.ruby_system.m_outstandReqHistSeqr::stdev     0.437314                       (Unspecified)
board.cache_hierarchy.ruby_system.m_outstandReqHistSeqr |      910047     80.03%     80.03% |      225519     19.83%     99.87% |        1230      0.11%     99.97% |         142      0.01%     99.99% |          60      0.01%     99.99% |          30      0.00%    100.00% |          20      0.00%    100.00% |          23      0.00%    100.00% |          10      0.00%    100.00% |           0      0.00%    100.00% (Unspecified)
board.cache_hierarchy.ruby_system.m_outstandReqHistSeqr::total      1137081                       (Unspecified)
board.cache_hierarchy.ruby_system.m_latencyHistSeqr::bucket_size          128                       (Unspecified)
board.cache_hierarchy.ruby_system.m_latencyHistSeqr::max_bucket         1279                       (Unspecified)
board.cache_hierarchy.ruby_system.m_latencyHistSeqr::samples      1137298                       (Unspecified)
board.cache_hierarchy.ruby_system.m_latencyHistSeqr::mean     7.352434                       (Unspecified)
board.cache_hierarchy.ruby_system.m_latencyHistSeqr::gmean     1.204227                       (Unspecified)
board.cache_hierarchy.ruby_system.m_latencyHistSeqr::stdev    34.932675                       (Unspecified)
board.cache_hierarchy.ruby_system.m_latencyHistSeqr |     1104432     97.11%     97.11% |       32834      2.89%    100.00% |          26      0.00%    100.00% |           0      0.00%    100.00% |           0      0.00%    100.00% |           0      0.00%    100.00% |           0      0.00%    100.00% |           1      0.00%    100.00% |           2      0.00%    100.00% |           3      0.00%    100.00% (Unspecified)
board.cache_hierarchy.ruby_system.m_latencyHistSeqr::total      1137298                       (Unspecified)
board.cache_hierarchy.ruby_system.m_hitLatencyHistSeqr::bucket_size           32                       (Unspecified)
board.cache_hierarchy.ruby_system.m_hitLatencyHistSeqr::max_bucket          319                       (Unspecified)
board.cache_hierarchy.ruby_system.m_hitLatencyHistSeqr::samples      1094929                       (Unspecified)
board.cache_hierarchy.ruby_system.m_hitLatencyHistSeqr::mean     1.000576                       (Unspecified)
board.cache_hierarchy.ruby_system.m_hitLatencyHistSeqr::gmean     1.000152                       (Unspecified)
board.cache_hierarchy.ruby_system.m_hitLatencyHistSeqr::stdev     0.252243                       (Unspecified)
board.cache_hierarchy.ruby_system.m_hitLatencyHistSeqr |     1094926    100.00%    100.00% |           1      0.00%    100.00% |           0      0.00%    100.00% |           0      0.00%    100.00% |           1      0.00%    100.00% |           0      0.00%    100.00% |           1      0.00%    100.00% |           0      0.00%    100.00% |           0      0.00%    100.00% |           0      0.00%    100.00% (Unspecified)
board.cache_hierarchy.ruby_system.m_hitLatencyHistSeqr::total      1094929                       (Unspecified)
board.cache_hierarchy.ruby_system.m_missLatencyHistSeqr::bucket_size          128                       (Unspecified)
board.cache_hierarchy.ruby_system.m_missLatencyHistSeqr::max_bucket         1279                       (Unspecified)
board.cache_hierarchy.ruby_system.m_missLatencyHistSeqr::samples        42369                       (Unspecified)
board.cache_hierarchy.ruby_system.m_missLatencyHistSeqr::mean   171.501546                       (Unspecified)
board.cache_hierarchy.ruby_system.m_missLatencyHistSeqr::gmean   146.127131                       (Unspecified)
board.cache_hierarchy.ruby_system.m_missLatencyHistSeqr::stdev    69.041821                       (Unspecified)
board.cache_hierarchy.ruby_system.m_missLatencyHistSeqr |        9505     22.43%     22.43% |       32832     77.49%     99.92% |          26      0.06%     99.99% |           0      0.00%     99.99% |           0      0.00%     99.99% |           0      0.00%     99.99% |           0      0.00%     99.99% |           1      0.00%     99.99% |           2      0.00%     99.99% |           3      0.01%    100.00% (Unspecified)
board.cache_hierarchy.ruby_system.m_missLatencyHistSeqr::total        42369                       (Unspecified)
board.cache_hierarchy.ruby_system.delayVCHist.vnet_0::bucket_size           32                       # delay histogram for vnet_0 (Unspecified)
board.cache_hierarchy.ruby_system.delayVCHist.vnet_0::max_bucket          319                       # delay histogram for vnet_0 (Unspecified)
board.cache_hierarchy.ruby_system.delayVCHist.vnet_0::samples        79459                       # delay histogram for vnet_0 (Unspecified)
board.cache_hierarchy.ruby_system.delayVCHist.vnet_0::mean    78.031073                       # delay histogram for vnet_0 (Unspecified)
board.cache_hierarchy.ruby_system.delayVCHist.vnet_0::stdev   100.695912                       # delay histogram for vnet_0 (Unspecified)
board.cache_hierarchy.ruby_system.delayVCHist.vnet_0 |       47162     59.35%     59.35% |          83      0.10%     59.46% |        3902      4.91%     64.37% |        2511      3.16%     67.53% |         822      1.03%     68.56% |        6499      8.18%     76.74% |        6411      8.07%     84.81% |        6072      7.64%     92.45% |        5997      7.55%    100.00% |           0      0.00%    100.00% # delay histogram for vnet_0 (Unspecified)
board.cache_hierarchy.ruby_system.delayVCHist.vnet_0::total        79459                       # delay histogram for vnet_0 (Unspecified)
board.cache_hierarchy.ruby_system.delayVCHist.vnet_1::bucket_size            4                       # delay histogram for vnet_1 (Unspecified)
board.cache_hierarchy.ruby_system.delayVCHist.vnet_1::max_bucket           39                       # delay histogram for vnet_1 (Unspecified)
board.cache_hierarchy.ruby_system.delayVCHist.vnet_1::samples        45402                       # delay histogram for vnet_1 (Unspecified)
board.cache_hierarchy.ruby_system.delayVCHist.vnet_1::mean     0.385666                       # delay histogram for vnet_1 (Unspecified)
board.cache_hierarchy.ruby_system.delayVCHist.vnet_1::stdev     1.825804                       # delay histogram for vnet_1 (Unspecified)
board.cache_hierarchy.ruby_system.delayVCHist.vnet_1 |       43428     95.65%     95.65% |          71      0.16%     95.81% |        1889      4.16%     99.97% |           6      0.01%     99.98% |           6      0.01%    100.00% |           0      0.00%    100.00% |           2      0.00%    100.00% |           0      0.00%    100.00% |           0      0.00%    100.00% |           0      0.00%    100.00% # delay histogram for vnet_1 (Unspecified)
board.cache_hierarchy.ruby_system.delayVCHist.vnet_1::total        45402                       # delay histogram for vnet_1 (Unspecified)
board.cache_hierarchy.ruby_system.delayVCHist.vnet_2::bucket_size            1                       # delay histogram for vnet_2 (Unspecified)
board.cache_hierarchy.ruby_system.delayVCHist.vnet_2::max_bucket            9                       # delay histogram for vnet_2 (Unspecified)
board.cache_hierarchy.ruby_system.delayVCHist.vnet_2::samples        34802                       # delay histogram for vnet_2 (Unspecified)
board.cache_hierarchy.ruby_system.delayVCHist.vnet_2::mean     0.000460                       # delay histogram for vnet_2 (Unspecified)
board.cache_hierarchy.ruby_system.delayVCHist.vnet_2::stdev     0.030320                       # delay histogram for vnet_2 (Unspecified)
board.cache_hierarchy.ruby_system.delayVCHist.vnet_2 |       34794     99.98%     99.98% |           0      0.00%     99.98% |           8      0.02%    100.00% |           0      0.00%    100.00% |           0      0.00%    100.00% |           0      0.00%    100.00% |           0      0.00%    100.00% |           0      0.00%    100.00% |           0      0.00%    100.00% |           0      0.00%    100.00% # delay histogram for vnet_2 (Unspecified)
board.cache_hierarchy.ruby_system.delayVCHist.vnet_2::total        34802                       # delay histogram for vnet_2 (Unspecified)
board.cache_hierarchy.ruby_system.Directory_Controller.Fetch          622      0.00%      0.00% (Unspecified)
board.cache_hierarchy.ruby_system.Directory_Controller.Memory_Data          622      0.00%      0.00% (Unspecified)
board.cache_hierarchy.ruby_system.Directory_Controller.I.Fetch          622      0.00%      0.00% (Unspecified)
board.cache_hierarchy.ruby_system.Directory_Controller.IM.Memory_Data          622      0.00%      0.00% (Unspecified)
board.cache_hierarchy.ruby_system.L1Cache_Controller.Load |        3585      1.34%      1.34% |       66092     24.68%     26.02% |       66055     24.67%     50.68% |       66035     24.66%     75.34% |       66030     24.66%    100.00% (Unspecified)
board.cache_hierarchy.ruby_system.L1Cache_Controller.Load::total       267797                       (Unspecified)
board.cache_hierarchy.ruby_system.L1Cache_Controller.Ifetch |        6063      0.96%      0.96% |      156380     24.75%     25.71% |      156477     24.77%     50.48% |      156424     24.76%     75.24% |      156423     24.76%    100.00% (Unspecified)
board.cache_hierarchy.ruby_system.L1Cache_Controller.Ifetch::total       631767                       (Unspecified)
board.cache_hierarchy.ruby_system.L1Cache_Controller.Store |        5948      2.50%      2.50% |       58095     24.44%     26.94% |       58091     24.44%     51.37% |       57800     24.31%     75.69% |       57800     24.31%    100.00% (Unspecified)
board.cache_hierarchy.ruby_system.L1Cache_Controller.Store::total       237734                       (Unspecified)
board.cache_hierarchy.ruby_system.L1Cache_Controller.Inv |          24     41.38%     41.38% |          11     18.97%     60.34% |          13     22.41%     82.76% |           6     10.34%     93.10% |           4      6.90%    100.00% (Unspecified)
board.cache_hierarchy.ruby_system.L1Cache_Controller.Inv::total           58                       (Unspecified)
board.cache_hierarchy.ruby_system.L1Cache_Controller.L1_Replacement |         476      6.82%      6.82% |        1639     23.48%     30.31% |        1640     23.50%     53.80% |        1613     23.11%     76.92% |        1611     23.08%    100.00% (Unspecified)
board.cache_hierarchy.ruby_system.L1Cache_Controller.L1_Replacement::total         6979                       (Unspecified)
board.cache_hierarchy.ruby_system.L1Cache_Controller.Fwd_GETX |          12      0.04%      0.04% |        8110     24.88%     24.91% |        8184     25.10%     50.02% |        8166     25.05%     75.07% |        8129     24.93%    100.00% (Unspecified)
board.cache_hierarchy.ruby_system.L1Cache_Controller.Fwd_GETX::total        32601                       (Unspecified)
board.cache_hierarchy.ruby_system.L1Cache_Controller.Fwd_GETS |         379     17.69%     17.69% |        1741     81.24%     98.93% |          13      0.61%     99.53% |           7      0.33%     99.86% |           3      0.14%    100.00% (Unspecified)
board.cache_hierarchy.ruby_system.L1Cache_Controller.Fwd_GETS::total         2143                       (Unspecified)
board.cache_hierarchy.ruby_system.L1Cache_Controller.Data |           0      0.00%      0.00% |           0      0.00%      0.00% |           1    100.00%    100.00% |           0      0.00%    100.00% |           0      0.00%    100.00% (Unspecified)
board.cache_hierarchy.ruby_system.L1Cache_Controller.Data::total            1                       (Unspecified)
board.cache_hierarchy.ruby_system.L1Cache_Controller.Data_Exclusive |          53      2.89%      2.89% |        1740     94.87%     97.76% |          14      0.76%     98.53% |          14      0.76%     99.29% |          13      0.71%    100.00% (Unspecified)
board.cache_hierarchy.ruby_system.L1Cache_Controller.Data_Exclusive::total         1834                       (Unspecified)
board.cache_hierarchy.ruby_system.L1Cache_Controller.DataS_fromL1 |           8      0.37%      0.37% |         349     16.29%     16.66% |        1746     81.47%     98.13% |          22      1.03%     99.16% |          18      0.84%    100.00% (Unspecified)
board.cache_hierarchy.ruby_system.L1Cache_Controller.DataS_fromL1::total         2143                       (Unspecified)
board.cache_hierarchy.ruby_system.L1Cache_Controller.Data_all_Acks |         424      1.11%      1.11% |        8347     21.77%     22.88% |        8757     22.84%     45.72% |       10421     27.18%     72.90% |       10388     27.10%    100.00% (Unspecified)
board.cache_hierarchy.ruby_system.L1Cache_Controller.Data_all_Acks::total        38337                       (Unspecified)
board.cache_hierarchy.ruby_system.L1Cache_Controller.Ack |           5      8.77%      8.77% |          12     21.05%     29.82% |          12     21.05%     50.88% |          15     26.32%     77.19% |          13     22.81%    100.00% (Unspecified)
board.cache_hierarchy.ruby_system.L1Cache_Controller.Ack::total           57                       (Unspecified)
board.cache_hierarchy.ruby_system.L1Cache_Controller.Ack_all |           5      9.09%      9.09% |          12     21.82%     30.91% |          12     21.82%     52.73% |          14     25.45%     78.18% |          12     21.82%    100.00% (Unspecified)
board.cache_hierarchy.ruby_system.L1Cache_Controller.Ack_all::total           55                       (Unspecified)
board.cache_hierarchy.ruby_system.L1Cache_Controller.WB_Ack |         155     73.81%     73.81% |          13      6.19%     80.00% |          14      6.67%     86.67% |          14      6.67%     93.33% |          14      6.67%    100.00% (Unspecified)
board.cache_hierarchy.ruby_system.L1Cache_Controller.WB_Ack::total          210                       (Unspecified)
board.cache_hierarchy.ruby_system.L1Cache_Controller.NP.Load |          59      0.70%      0.70% |        2090     24.79%     25.49% |        2092     24.81%     50.30% |        2096     24.86%     75.15% |        2095     24.85%    100.00% (Unspecified)
board.cache_hierarchy.ruby_system.L1Cache_Controller.NP.Load::total         8432                       (Unspecified)
board.cache_hierarchy.ruby_system.L1Cache_Controller.NP.Ifetch |         306     30.09%     30.09% |         188     18.49%     48.57% |         191     18.78%     67.35% |         167     16.42%     83.78% |         165     16.22%    100.00% (Unspecified)
board.cache_hierarchy.ruby_system.L1Cache_Controller.NP.Ifetch::total         1017                       (Unspecified)
board.cache_hierarchy.ruby_system.L1Cache_Controller.NP.Store |         109     38.11%     38.11% |          61     21.33%     59.44% |          60     20.98%     80.42% |          28      9.79%     90.21% |          28      9.79%    100.00% (Unspecified)
board.cache_hierarchy.ruby_system.L1Cache_Controller.NP.Store::total          286                       (Unspecified)
board.cache_hierarchy.ruby_system.L1Cache_Controller.I.Load |           7     41.18%     41.18% |           1      5.88%     47.06% |           4     23.53%     70.59% |           3     17.65%     88.24% |           2     11.76%    100.00% (Unspecified)
board.cache_hierarchy.ruby_system.L1Cache_Controller.I.Load::total           17                       (Unspecified)
board.cache_hierarchy.ruby_system.L1Cache_Controller.I.Store |           4      0.01%      0.01% |        8096     24.86%     24.87% |        8171     25.09%     49.97% |        8163     25.07%     75.04% |        8129     24.96%    100.00% (Unspecified)
board.cache_hierarchy.ruby_system.L1Cache_Controller.I.Store::total        32563                       (Unspecified)
board.cache_hierarchy.ruby_system.L1Cache_Controller.I.L1_Replacement |           1     50.00%     50.00% |           1     50.00%    100.00% |           0      0.00%    100.00% |           0      0.00%    100.00% |           0      0.00%    100.00% (Unspecified)
board.cache_hierarchy.ruby_system.L1Cache_Controller.I.L1_Replacement::total            2                       (Unspecified)
board.cache_hierarchy.ruby_system.L1Cache_Controller.S.Load |          23      0.12%      0.12% |        1043      5.29%      5.41% |        6213     31.51%     36.92% |        6223     31.56%     68.48% |        6214     31.52%    100.00% (Unspecified)
board.cache_hierarchy.ruby_system.L1Cache_Controller.S.Load::total        19716                       (Unspecified)
board.cache_hierarchy.ruby_system.L1Cache_Controller.S.Ifetch |        5757      0.91%      0.91% |      156192     24.76%     25.68% |      156286     24.78%     50.45% |      156257     24.77%     75.23% |      156258     24.77%    100.00% (Unspecified)
board.cache_hierarchy.ruby_system.L1Cache_Controller.S.Ifetch::total       630750                       (Unspecified)
board.cache_hierarchy.ruby_system.L1Cache_Controller.S.Store |           5      9.26%      9.26% |          12     22.22%     31.48% |          11     20.37%     51.85% |          14     25.93%     77.78% |          12     22.22%    100.00% (Unspecified)
board.cache_hierarchy.ruby_system.L1Cache_Controller.S.Store::total           54                       (Unspecified)
board.cache_hierarchy.ruby_system.L1Cache_Controller.S.Inv |          24     41.38%     41.38% |          11     18.97%     60.34% |          13     22.41%     82.76% |           6     10.34%     93.10% |           4      6.90%    100.00% (Unspecified)
board.cache_hierarchy.ruby_system.L1Cache_Controller.S.Inv::total           58                       (Unspecified)
board.cache_hierarchy.ruby_system.L1Cache_Controller.S.L1_Replacement |         320      4.73%      4.73% |        1625     24.01%     28.74% |        1626     24.03%     52.77% |        1599     23.63%     76.40% |        1597     23.60%    100.00% (Unspecified)
board.cache_hierarchy.ruby_system.L1Cache_Controller.S.L1_Replacement::total         6767                       (Unspecified)
board.cache_hierarchy.ruby_system.L1Cache_Controller.E.Load |         510      8.91%      8.91% |        5177     90.43%     99.34% |           9      0.16%     99.49% |          17      0.30%     99.79% |          12      0.21%    100.00% (Unspecified)
board.cache_hierarchy.ruby_system.L1Cache_Controller.E.Load::total         5725                       (Unspecified)
board.cache_hierarchy.ruby_system.L1Cache_Controller.E.Store |          21     37.50%     37.50% |           8     14.29%     51.79% |           9     16.07%     67.86% |           9     16.07%     83.93% |           9     16.07%    100.00% (Unspecified)
board.cache_hierarchy.ruby_system.L1Cache_Controller.E.Store::total           56                       (Unspecified)
board.cache_hierarchy.ruby_system.L1Cache_Controller.E.L1_Replacement |           3     42.86%     42.86% |           1     14.29%     57.14% |           1     14.29%     71.43% |           1     14.29%     85.71% |           1     14.29%    100.00% (Unspecified)
board.cache_hierarchy.ruby_system.L1Cache_Controller.E.L1_Replacement::total            7                       (Unspecified)
board.cache_hierarchy.ruby_system.L1Cache_Controller.E.Fwd_GETS |           8      0.46%      0.46% |        1728     99.48%     99.94% |           1      0.06%    100.00% |           0      0.00%    100.00% |           0      0.00%    100.00% (Unspecified)
board.cache_hierarchy.ruby_system.L1Cache_Controller.E.Fwd_GETS::total         1737                       (Unspecified)
board.cache_hierarchy.ruby_system.L1Cache_Controller.M.Load |        2986      1.28%      1.28% |       57781     24.70%     25.98% |       57737     24.68%     50.66% |       57696     24.67%     75.33% |       57707     24.67%    100.00% (Unspecified)
board.cache_hierarchy.ruby_system.L1Cache_Controller.M.Load::total       233907                       (Unspecified)
board.cache_hierarchy.ruby_system.L1Cache_Controller.M.Store |        5809      2.84%      2.84% |       49918     24.38%     27.21% |       49840     24.34%     51.55% |       49586     24.21%     75.77% |       49622     24.23%    100.00% (Unspecified)
board.cache_hierarchy.ruby_system.L1Cache_Controller.M.Store::total       204775                       (Unspecified)
board.cache_hierarchy.ruby_system.L1Cache_Controller.M.L1_Replacement |         152     74.88%     74.88% |          12      5.91%     80.79% |          13      6.40%     87.19% |          13      6.40%     93.60% |          13      6.40%    100.00% (Unspecified)
board.cache_hierarchy.ruby_system.L1Cache_Controller.M.L1_Replacement::total          203                       (Unspecified)
board.cache_hierarchy.ruby_system.L1Cache_Controller.M.Fwd_GETX |          12      0.04%      0.04% |        8110     24.88%     24.91% |        8184     25.10%     50.02% |        8166     25.05%     75.07% |        8129     24.93%    100.00% (Unspecified)
board.cache_hierarchy.ruby_system.L1Cache_Controller.M.Fwd_GETX::total        32601                       (Unspecified)
board.cache_hierarchy.ruby_system.L1Cache_Controller.M.Fwd_GETS |         371     91.38%     91.38% |          13      3.20%     94.58% |          12      2.96%     97.54% |           7      1.72%     99.26% |           3      0.74%    100.00% (Unspecified)
board.cache_hierarchy.ruby_system.L1Cache_Controller.M.Fwd_GETS::total          406                       (Unspecified)
board.cache_hierarchy.ruby_system.L1Cache_Controller.IS.Data_Exclusive |          53      2.89%      2.89% |        1740     94.87%     97.76% |          14      0.76%     98.53% |          14      0.76%     99.29% |          13      0.71%    100.00% (Unspecified)
board.cache_hierarchy.ruby_system.L1Cache_Controller.IS.Data_Exclusive::total         1834                       (Unspecified)
board.cache_hierarchy.ruby_system.L1Cache_Controller.IS.DataS_fromL1 |           8      0.37%      0.37% |         349     16.29%     16.66% |        1746     81.47%     98.13% |          22      1.03%     99.16% |          18      0.84%    100.00% (Unspecified)
board.cache_hierarchy.ruby_system.L1Cache_Controller.IS.DataS_fromL1::total         2143                       (Unspecified)
board.cache_hierarchy.ruby_system.L1Cache_Controller.IS.Data_all_Acks |         311      5.67%      5.67% |         190      3.46%      9.13% |         527      9.60%     18.73% |        2230     40.63%     59.36% |        2231     40.64%    100.00% (Unspecified)
board.cache_hierarchy.ruby_system.L1Cache_Controller.IS.Data_all_Acks::total         5489                       (Unspecified)
board.cache_hierarchy.ruby_system.L1Cache_Controller.IM.Data |           0      0.00%      0.00% |           0      0.00%      0.00% |           1    100.00%    100.00% |           0      0.00%    100.00% |           0      0.00%    100.00% (Unspecified)
board.cache_hierarchy.ruby_system.L1Cache_Controller.IM.Data::total            1                       (Unspecified)
board.cache_hierarchy.ruby_system.L1Cache_Controller.IM.Data_all_Acks |         113      0.34%      0.34% |        8157     24.83%     25.18% |        8230     25.05%     50.23% |        8191     24.94%     75.17% |        8157     24.83%    100.00% (Unspecified)
board.cache_hierarchy.ruby_system.L1Cache_Controller.IM.Data_all_Acks::total        32848                       (Unspecified)
board.cache_hierarchy.ruby_system.L1Cache_Controller.SM.Ack |           5      8.77%      8.77% |          12     21.05%     29.82% |          12     21.05%     50.88% |          15     26.32%     77.19% |          13     22.81%    100.00% (Unspecified)
board.cache_hierarchy.ruby_system.L1Cache_Controller.SM.Ack::total           57                       (Unspecified)
board.cache_hierarchy.ruby_system.L1Cache_Controller.SM.Ack_all |           5      9.09%      9.09% |          12     21.82%     30.91% |          12     21.82%     52.73% |          14     25.45%     78.18% |          12     21.82%    100.00% (Unspecified)
board.cache_hierarchy.ruby_system.L1Cache_Controller.SM.Ack_all::total           55                       (Unspecified)
board.cache_hierarchy.ruby_system.L1Cache_Controller.M_I.WB_Ack |         155     73.81%     73.81% |          13      6.19%     80.00% |          14      6.67%     86.67% |          14      6.67%     93.33% |          14      6.67%    100.00% (Unspecified)
board.cache_hierarchy.ruby_system.L1Cache_Controller.M_I.WB_Ack::total          210                       (Unspecified)
board.cache_hierarchy.ruby_system.L2Cache_Controller.L1_GET_INSTR |         257     25.27%     25.27% |         247     24.29%     49.56% |         264     25.96%     75.52% |         249     24.48%    100.00% (Unspecified)
board.cache_hierarchy.ruby_system.L2Cache_Controller.L1_GET_INSTR::total         1017                       (Unspecified)
board.cache_hierarchy.ruby_system.L2Cache_Controller.L1_GETS |        2103     24.89%     24.89% |        2126     25.16%     50.05% |        2128     25.19%     75.24% |        2092     24.76%    100.00% (Unspecified)
board.cache_hierarchy.ruby_system.L2Cache_Controller.L1_GETS::total         8449                       (Unspecified)
board.cache_hierarchy.ruby_system.L2Cache_Controller.L1_GETX |      107688     99.80%     99.80% |          79      0.07%     99.88% |          68      0.06%     99.94% |          64      0.06%    100.00% (Unspecified)
board.cache_hierarchy.ruby_system.L2Cache_Controller.L1_GETX::total       107899                       (Unspecified)
board.cache_hierarchy.ruby_system.L2Cache_Controller.L1_UPGRADE |           6     11.11%     11.11% |          26     48.15%     59.26% |          19     35.19%     94.44% |           3      5.56%    100.00% (Unspecified)
board.cache_hierarchy.ruby_system.L2Cache_Controller.L1_UPGRADE::total           54                       (Unspecified)
board.cache_hierarchy.ruby_system.L2Cache_Controller.L1_PUTX |          52     24.76%     24.76% |          60     28.57%     53.33% |          55     26.19%     79.52% |          43     20.48%    100.00% (Unspecified)
board.cache_hierarchy.ruby_system.L2Cache_Controller.L1_PUTX::total          210                       (Unspecified)
board.cache_hierarchy.ruby_system.L2Cache_Controller.Mem_Data |         155     24.92%     24.92% |         162     26.05%     50.96% |         156     25.08%     76.05% |         149     23.95%    100.00% (Unspecified)
board.cache_hierarchy.ruby_system.L2Cache_Controller.Mem_Data::total          622                       (Unspecified)
board.cache_hierarchy.ruby_system.L2Cache_Controller.WB_Data |          93     22.91%     22.91% |         115     28.33%     51.23% |         103     25.37%     76.60% |          95     23.40%    100.00% (Unspecified)
board.cache_hierarchy.ruby_system.L2Cache_Controller.WB_Data::total          406                       (Unspecified)
board.cache_hierarchy.ruby_system.L2Cache_Controller.WB_Data_clean |         429     24.70%     24.70% |         439     25.27%     49.97% |         441     25.39%     75.36% |         428     24.64%    100.00% (Unspecified)
board.cache_hierarchy.ruby_system.L2Cache_Controller.WB_Data_clean::total         1737                       (Unspecified)
board.cache_hierarchy.ruby_system.L2Cache_Controller.Unblock |         522     24.36%     24.36% |         554     25.85%     50.21% |         544     25.38%     75.59% |         523     24.41%    100.00% (Unspecified)
board.cache_hierarchy.ruby_system.L2Cache_Controller.Unblock::total         2143                       (Unspecified)
board.cache_hierarchy.ruby_system.L2Cache_Controller.Exclusive_Unblock |       33103     95.30%     95.30% |         567      1.63%     96.93% |         552      1.59%     98.52% |         515      1.48%    100.00% (Unspecified)
board.cache_hierarchy.ruby_system.L2Cache_Controller.Exclusive_Unblock::total        34737                       (Unspecified)
board.cache_hierarchy.ruby_system.L2Cache_Controller.NP.L1_GET_INSTR |          91     24.80%     24.80% |          91     24.80%     49.59% |          93     25.34%     74.93% |          92     25.07%    100.00% (Unspecified)
board.cache_hierarchy.ruby_system.L2Cache_Controller.NP.L1_GET_INSTR::total          367                       (Unspecified)
board.cache_hierarchy.ruby_system.L2Cache_Controller.NP.L1_GETS |           7     26.92%     26.92% |           8     30.77%     57.69% |           6     23.08%     80.77% |           5     19.23%    100.00% (Unspecified)
board.cache_hierarchy.ruby_system.L2Cache_Controller.NP.L1_GETS::total           26                       (Unspecified)
board.cache_hierarchy.ruby_system.L2Cache_Controller.NP.L1_GETX |          57     24.89%     24.89% |          63     27.51%     52.40% |          57     24.89%     77.29% |          52     22.71%    100.00% (Unspecified)
board.cache_hierarchy.ruby_system.L2Cache_Controller.NP.L1_GETX::total          229                       (Unspecified)
board.cache_hierarchy.ruby_system.L2Cache_Controller.SS.L1_GET_INSTR |         166     25.62%     25.62% |         155     23.92%     49.54% |         170     26.23%     75.77% |         157     24.23%    100.00% (Unspecified)
board.cache_hierarchy.ruby_system.L2Cache_Controller.SS.L1_GET_INSTR::total          648                       (Unspecified)
board.cache_hierarchy.ruby_system.L2Cache_Controller.SS.L1_GETS |        1122     25.09%     25.09% |        1110     24.82%     49.91% |        1119     25.02%     74.93% |        1121     25.07%    100.00% (Unspecified)
board.cache_hierarchy.ruby_system.L2Cache_Controller.SS.L1_GETS::total         4472                       (Unspecified)
board.cache_hierarchy.ruby_system.L2Cache_Controller.SS.L1_GETX |           0      0.00%      0.00% |           0      0.00%      0.00% |           1    100.00%    100.00% |           0      0.00%    100.00% (Unspecified)
board.cache_hierarchy.ruby_system.L2Cache_Controller.SS.L1_GETX::total            1                       (Unspecified)
board.cache_hierarchy.ruby_system.L2Cache_Controller.SS.L1_UPGRADE |           6     11.11%     11.11% |          26     48.15%     59.26% |          19     35.19%     94.44% |           3      5.56%    100.00% (Unspecified)
board.cache_hierarchy.ruby_system.L2Cache_Controller.SS.L1_UPGRADE::total           54                       (Unspecified)
board.cache_hierarchy.ruby_system.L2Cache_Controller.M.L1_GETS |         452     25.00%     25.00% |         454     25.11%     50.11% |         459     25.39%     75.50% |         443     24.50%    100.00% (Unspecified)
board.cache_hierarchy.ruby_system.L2Cache_Controller.M.L1_GETS::total         1808                       (Unspecified)
board.cache_hierarchy.ruby_system.L2Cache_Controller.M.L1_GETX |           4     22.22%     22.22% |           6     33.33%     55.56% |           4     22.22%     77.78% |           4     22.22%    100.00% (Unspecified)
board.cache_hierarchy.ruby_system.L2Cache_Controller.M.L1_GETX::total           18                       (Unspecified)
board.cache_hierarchy.ruby_system.L2Cache_Controller.MT.L1_GETS |         522     24.36%     24.36% |         554     25.85%     50.21% |         544     25.38%     75.59% |         523     24.41%    100.00% (Unspecified)
board.cache_hierarchy.ruby_system.L2Cache_Controller.MT.L1_GETS::total         2143                       (Unspecified)
board.cache_hierarchy.ruby_system.L2Cache_Controller.MT.L1_GETX |       32577     99.93%     99.93% |          10      0.03%     99.96% |           6      0.02%     99.98% |           8      0.02%    100.00% (Unspecified)
board.cache_hierarchy.ruby_system.L2Cache_Controller.MT.L1_GETX::total        32601                       (Unspecified)
board.cache_hierarchy.ruby_system.L2Cache_Controller.MT.L1_PUTX |          52     24.76%     24.76% |          60     28.57%     53.33% |          55     26.19%     79.52% |          43     20.48%    100.00% (Unspecified)
board.cache_hierarchy.ruby_system.L2Cache_Controller.MT.L1_PUTX::total          210                       (Unspecified)
board.cache_hierarchy.ruby_system.L2Cache_Controller.ISS.Mem_Data |           7     26.92%     26.92% |           8     30.77%     57.69% |           6     23.08%     80.77% |           5     19.23%    100.00% (Unspecified)
board.cache_hierarchy.ruby_system.L2Cache_Controller.ISS.Mem_Data::total           26                       (Unspecified)
board.cache_hierarchy.ruby_system.L2Cache_Controller.IS.L1_GET_INSTR |           0      0.00%      0.00% |           1     50.00%     50.00% |           1     50.00%    100.00% |           0      0.00%    100.00% (Unspecified)
board.cache_hierarchy.ruby_system.L2Cache_Controller.IS.L1_GET_INSTR::total            2                       (Unspecified)
board.cache_hierarchy.ruby_system.L2Cache_Controller.IS.Mem_Data |          91     24.80%     24.80% |          91     24.80%     49.59% |          93     25.34%     74.93% |          92     25.07%    100.00% (Unspecified)
board.cache_hierarchy.ruby_system.L2Cache_Controller.IS.Mem_Data::total          367                       (Unspecified)
board.cache_hierarchy.ruby_system.L2Cache_Controller.IM.Mem_Data |          57     24.89%     24.89% |          63     27.51%     52.40% |          57     24.89%     77.29% |          52     22.71%    100.00% (Unspecified)
board.cache_hierarchy.ruby_system.L2Cache_Controller.IM.Mem_Data::total          229                       (Unspecified)
board.cache_hierarchy.ruby_system.L2Cache_Controller.SS_MB.Exclusive_Unblock |           6     10.91%     10.91% |          26     47.27%     58.18% |          20     36.36%     94.55% |           3      5.45%    100.00% (Unspecified)
board.cache_hierarchy.ruby_system.L2Cache_Controller.SS_MB.Exclusive_Unblock::total           55                       (Unspecified)
board.cache_hierarchy.ruby_system.L2Cache_Controller.MT_MB.L1_GETX |       75050    100.00%    100.00% |           0      0.00%    100.00% |           0      0.00%    100.00% |           0      0.00%    100.00% (Unspecified)
board.cache_hierarchy.ruby_system.L2Cache_Controller.MT_MB.L1_GETX::total        75050                       (Unspecified)
board.cache_hierarchy.ruby_system.L2Cache_Controller.MT_MB.Exclusive_Unblock |       33097     95.43%     95.43% |         541      1.56%     96.99% |         532      1.53%     98.52% |         512      1.48%    100.00% (Unspecified)
board.cache_hierarchy.ruby_system.L2Cache_Controller.MT_MB.Exclusive_Unblock::total        34682                       (Unspecified)
board.cache_hierarchy.ruby_system.L2Cache_Controller.MT_IIB.WB_Data |          92     23.12%     23.12% |         111     27.89%     51.01% |         100     25.13%     76.13% |          95     23.87%    100.00% (Unspecified)
board.cache_hierarchy.ruby_system.L2Cache_Controller.MT_IIB.WB_Data::total          398                       (Unspecified)
board.cache_hierarchy.ruby_system.L2Cache_Controller.MT_IIB.WB_Data_clean |         429     24.70%     24.70% |         439     25.27%     49.97% |         441     25.39%     75.36% |         428     24.64%    100.00% (Unspecified)
board.cache_hierarchy.ruby_system.L2Cache_Controller.MT_IIB.WB_Data_clean::total         1737                       (Unspecified)
board.cache_hierarchy.ruby_system.L2Cache_Controller.MT_IIB.Unblock |           1     12.50%     12.50% |           4     50.00%     62.50% |           3     37.50%    100.00% |           0      0.00%    100.00% (Unspecified)
board.cache_hierarchy.ruby_system.L2Cache_Controller.MT_IIB.Unblock::total            8                       (Unspecified)
board.cache_hierarchy.ruby_system.L2Cache_Controller.MT_IB.WB_Data |           1     12.50%     12.50% |           4     50.00%     62.50% |           3     37.50%    100.00% |           0      0.00%    100.00% (Unspecified)
board.cache_hierarchy.ruby_system.L2Cache_Controller.MT_IB.WB_Data::total            8                       (Unspecified)
board.cache_hierarchy.ruby_system.L2Cache_Controller.MT_SB.Unblock |         521     24.40%     24.40% |         550     25.76%     50.16% |         541     25.34%     75.50% |         523     24.50%    100.00% (Unspecified)
board.cache_hierarchy.ruby_system.L2Cache_Controller.MT_SB.Unblock::total         2135                       (Unspecified)
board.cache_hierarchy.ruby_system.RequestType.LD.latency_hist_seqr::bucket_size          128                       (Unspecified)
board.cache_hierarchy.ruby_system.RequestType.LD.latency_hist_seqr::max_bucket         1279                       (Unspecified)
board.cache_hierarchy.ruby_system.RequestType.LD.latency_hist_seqr::samples       267797                       (Unspecified)
board.cache_hierarchy.ruby_system.RequestType.LD.latency_hist_seqr::mean     2.646553                       (Unspecified)
board.cache_hierarchy.ruby_system.RequestType.LD.latency_hist_seqr::gmean     1.128332                       (Unspecified)
board.cache_hierarchy.ruby_system.RequestType.LD.latency_hist_seqr::stdev    10.331532                       (Unspecified)
board.cache_hierarchy.ruby_system.RequestType.LD.latency_hist_seqr |      267771     99.99%     99.99% |          19      0.01%    100.00% |           5      0.00%    100.00% |           0      0.00%    100.00% |           0      0.00%    100.00% |           0      0.00%    100.00% |           0      0.00%    100.00% |           1      0.00%    100.00% |           1      0.00%    100.00% |           0      0.00%    100.00% (Unspecified)
board.cache_hierarchy.ruby_system.RequestType.LD.latency_hist_seqr::total       267797                       (Unspecified)
board.cache_hierarchy.ruby_system.RequestType.LD.hit_latency_hist_seqr::bucket_size            1                       (Unspecified)
board.cache_hierarchy.ruby_system.RequestType.LD.hit_latency_hist_seqr::max_bucket            9                       (Unspecified)
board.cache_hierarchy.ruby_system.RequestType.LD.hit_latency_hist_seqr::samples       259348                       (Unspecified)
board.cache_hierarchy.ruby_system.RequestType.LD.hit_latency_hist_seqr::mean     1.000015                       (Unspecified)
board.cache_hierarchy.ruby_system.RequestType.LD.hit_latency_hist_seqr::gmean     1.000011                       (Unspecified)
board.cache_hierarchy.ruby_system.RequestType.LD.hit_latency_hist_seqr::stdev     0.003927                       (Unspecified)
board.cache_hierarchy.ruby_system.RequestType.LD.hit_latency_hist_seqr |           0      0.00%      0.00% |      259344    100.00%    100.00% |           4      0.00%    100.00% |           0      0.00%    100.00% |           0      0.00%    100.00% |           0      0.00%    100.00% |           0      0.00%    100.00% |           0      0.00%    100.00% |           0      0.00%    100.00% |           0      0.00%    100.00% (Unspecified)
board.cache_hierarchy.ruby_system.RequestType.LD.hit_latency_hist_seqr::total       259348                       (Unspecified)
board.cache_hierarchy.ruby_system.RequestType.LD.miss_latency_hist_seqr::bucket_size          128                       (Unspecified)
board.cache_hierarchy.ruby_system.RequestType.LD.miss_latency_hist_seqr::max_bucket         1279                       (Unspecified)
board.cache_hierarchy.ruby_system.RequestType.LD.miss_latency_hist_seqr::samples         8449                       (Unspecified)
board.cache_hierarchy.ruby_system.RequestType.LD.miss_latency_hist_seqr::mean    53.188188                       (Unspecified)
board.cache_hierarchy.ruby_system.RequestType.LD.miss_latency_hist_seqr::gmean    45.907608                       (Unspecified)
board.cache_hierarchy.ruby_system.RequestType.LD.miss_latency_hist_seqr::stdev    27.305980                       (Unspecified)
board.cache_hierarchy.ruby_system.RequestType.LD.miss_latency_hist_seqr |        8423     99.69%     99.69% |          19      0.22%     99.92% |           5      0.06%     99.98% |           0      0.00%     99.98% |           0      0.00%     99.98% |           0      0.00%     99.98% |           0      0.00%     99.98% |           1      0.01%     99.99% |           1      0.01%    100.00% |           0      0.00%    100.00% (Unspecified)
board.cache_hierarchy.ruby_system.RequestType.LD.miss_latency_hist_seqr::total         8449                       (Unspecified)
board.cache_hierarchy.ruby_system.RequestType.ST.latency_hist_seqr::bucket_size          128                       (Unspecified)
board.cache_hierarchy.ruby_system.RequestType.ST.latency_hist_seqr::max_bucket         1279                       (Unspecified)
board.cache_hierarchy.ruby_system.RequestType.ST.latency_hist_seqr::samples       171699                       (Unspecified)
board.cache_hierarchy.ruby_system.RequestType.ST.latency_hist_seqr::mean     1.289431                       (Unspecified)
board.cache_hierarchy.ruby_system.RequestType.ST.latency_hist_seqr::gmean     1.009406                       (Unspecified)
board.cache_hierarchy.ruby_system.RequestType.ST.latency_hist_seqr::stdev     8.252597                       (Unspecified)
board.cache_hierarchy.ruby_system.RequestType.ST.latency_hist_seqr |      171472     99.87%     99.87% |         215      0.13%     99.99% |          10      0.01%    100.00% |           0      0.00%    100.00% |           0      0.00%    100.00% |           0      0.00%    100.00% |           0      0.00%    100.00% |           0      0.00%    100.00% |           0      0.00%    100.00% |           2      0.00%    100.00% (Unspecified)
board.cache_hierarchy.ruby_system.RequestType.ST.latency_hist_seqr::total       171699                       (Unspecified)
board.cache_hierarchy.ruby_system.RequestType.ST.hit_latency_hist_seqr::bucket_size           32                       (Unspecified)
board.cache_hierarchy.ruby_system.RequestType.ST.hit_latency_hist_seqr::max_bucket          319                       (Unspecified)
board.cache_hierarchy.ruby_system.RequestType.ST.hit_latency_hist_seqr::samples       171409                       (Unspecified)
board.cache_hierarchy.ruby_system.RequestType.ST.hit_latency_hist_seqr::mean     1.003605                       (Unspecified)
board.cache_hierarchy.ruby_system.RequestType.ST.hit_latency_hist_seqr::gmean     1.000917                       (Unspecified)
board.cache_hierarchy.ruby_system.RequestType.ST.hit_latency_hist_seqr::stdev     0.637456                       (Unspecified)
board.cache_hierarchy.ruby_system.RequestType.ST.hit_latency_hist_seqr |      171406    100.00%    100.00% |           1      0.00%    100.00% |           0      0.00%    100.00% |           0      0.00%    100.00% |           1      0.00%    100.00% |           0      0.00%    100.00% |           1      0.00%    100.00% |           0      0.00%    100.00% |           0      0.00%    100.00% |           0      0.00%    100.00% (Unspecified)
board.cache_hierarchy.ruby_system.RequestType.ST.hit_latency_hist_seqr::total       171409                       (Unspecified)
board.cache_hierarchy.ruby_system.RequestType.ST.miss_latency_hist_seqr::bucket_size          128                       (Unspecified)
board.cache_hierarchy.ruby_system.RequestType.ST.miss_latency_hist_seqr::max_bucket         1279                       (Unspecified)
board.cache_hierarchy.ruby_system.RequestType.ST.miss_latency_hist_seqr::samples          290                       (Unspecified)
board.cache_hierarchy.ruby_system.RequestType.ST.miss_latency_hist_seqr::mean   170.231034                       (Unspecified)
board.cache_hierarchy.ruby_system.RequestType.ST.miss_latency_hist_seqr::gmean   148.548393                       (Unspecified)
board.cache_hierarchy.ruby_system.RequestType.ST.miss_latency_hist_seqr::stdev   107.390107                       (Unspecified)
board.cache_hierarchy.ruby_system.RequestType.ST.miss_latency_hist_seqr |          65     22.41%     22.41% |         213     73.45%     95.86% |          10      3.45%     99.31% |           0      0.00%     99.31% |           0      0.00%     99.31% |           0      0.00%     99.31% |           0      0.00%     99.31% |           0      0.00%     99.31% |           0      0.00%     99.31% |           2      0.69%    100.00% (Unspecified)
board.cache_hierarchy.ruby_system.RequestType.ST.miss_latency_hist_seqr::total          290                       (Unspecified)
board.cache_hierarchy.ruby_system.RequestType.IFETCH.latency_hist_seqr::bucket_size          128                       (Unspecified)
board.cache_hierarchy.ruby_system.RequestType.IFETCH.latency_hist_seqr::max_bucket         1279                       (Unspecified)
board.cache_hierarchy.ruby_system.RequestType.IFETCH.latency_hist_seqr::samples       631767                       (Unspecified)
board.cache_hierarchy.ruby_system.RequestType.IFETCH.latency_hist_seqr::mean     1.158747                       (Unspecified)
board.cache_hierarchy.ruby_system.RequestType.IFETCH.latency_hist_seqr::gmean     1.006835                       (Unspecified)
board.cache_hierarchy.ruby_system.RequestType.IFETCH.latency_hist_seqr::stdev     5.297663                       (Unspecified)
board.cache_hierarchy.ruby_system.RequestType.IFETCH.latency_hist_seqr |      631399     99.94%     99.94% |         355      0.06%    100.00% |          11      0.00%    100.00% |           0      0.00%    100.00% |           0      0.00%    100.00% |           0      0.00%    100.00% |           0      0.00%    100.00% |           0      0.00%    100.00% |           1      0.00%    100.00% |           1      0.00%    100.00% (Unspecified)
board.cache_hierarchy.ruby_system.RequestType.IFETCH.latency_hist_seqr::total       631767                       (Unspecified)
board.cache_hierarchy.ruby_system.RequestType.IFETCH.hit_latency_hist_seqr::bucket_size            1                       (Unspecified)
board.cache_hierarchy.ruby_system.RequestType.IFETCH.hit_latency_hist_seqr::max_bucket            9                       (Unspecified)
board.cache_hierarchy.ruby_system.RequestType.IFETCH.hit_latency_hist_seqr::samples       630750                       (Unspecified)
board.cache_hierarchy.ruby_system.RequestType.IFETCH.hit_latency_hist_seqr::mean            1                       (Unspecified)
board.cache_hierarchy.ruby_system.RequestType.IFETCH.hit_latency_hist_seqr::gmean            1                       (Unspecified)
board.cache_hierarchy.ruby_system.RequestType.IFETCH.hit_latency_hist_seqr |           0      0.00%      0.00% |      630750    100.00%    100.00% |           0      0.00%    100.00% |           0      0.00%    100.00% |           0      0.00%    100.00% |           0      0.00%    100.00% |           0      0.00%    100.00% |           0      0.00%    100.00% |           0      0.00%    100.00% |           0      0.00%    100.00% (Unspecified)
board.cache_hierarchy.ruby_system.RequestType.IFETCH.hit_latency_hist_seqr::total       630750                       (Unspecified)
board.cache_hierarchy.ruby_system.RequestType.IFETCH.miss_latency_hist_seqr::bucket_size          128                       (Unspecified)
board.cache_hierarchy.ruby_system.RequestType.IFETCH.miss_latency_hist_seqr::max_bucket         1279                       (Unspecified)
board.cache_hierarchy.ruby_system.RequestType.IFETCH.miss_latency_hist_seqr::samples         1017                       (Unspecified)
board.cache_hierarchy.ruby_system.RequestType.IFETCH.miss_latency_hist_seqr::mean    99.614553                       (Unspecified)
board.cache_hierarchy.ruby_system.RequestType.IFETCH.miss_latency_hist_seqr::gmean    68.805288                       (Unspecified)
board.cache_hierarchy.ruby_system.RequestType.IFETCH.miss_latency_hist_seqr::stdev    87.935804                       (Unspecified)
board.cache_hierarchy.ruby_system.RequestType.IFETCH.miss_latency_hist_seqr |         649     63.82%     63.82% |         355     34.91%     98.72% |          11      1.08%     99.80% |           0      0.00%     99.80% |           0      0.00%     99.80% |           0      0.00%     99.80% |           0      0.00%     99.80% |           0      0.00%     99.80% |           1      0.10%     99.90% |           1      0.10%    100.00% (Unspecified)
board.cache_hierarchy.ruby_system.RequestType.IFETCH.miss_latency_hist_seqr::total         1017                       (Unspecified)
board.cache_hierarchy.ruby_system.RequestType.RMW_Read.latency_hist_seqr::bucket_size           32                       (Unspecified)
board.cache_hierarchy.ruby_system.RequestType.RMW_Read.latency_hist_seqr::max_bucket          319                       (Unspecified)
board.cache_hierarchy.ruby_system.RequestType.RMW_Read.latency_hist_seqr::samples          117                       (Unspecified)
board.cache_hierarchy.ruby_system.RequestType.RMW_Read.latency_hist_seqr::mean    10.410256                       (Unspecified)
board.cache_hierarchy.ruby_system.RequestType.RMW_Read.latency_hist_seqr::gmean     1.508827                       (Unspecified)
board.cache_hierarchy.ruby_system.RequestType.RMW_Read.latency_hist_seqr::stdev    36.703649                       (Unspecified)
board.cache_hierarchy.ruby_system.RequestType.RMW_Read.latency_hist_seqr |         108     92.31%     92.31% |           1      0.85%     93.16% |           4      3.42%     96.58% |           0      0.00%     96.58% |           0      0.00%     96.58% |           2      1.71%     98.29% |           2      1.71%    100.00% |           0      0.00%    100.00% |           0      0.00%    100.00% |           0      0.00%    100.00% (Unspecified)
board.cache_hierarchy.ruby_system.RequestType.RMW_Read.latency_hist_seqr::total          117                       (Unspecified)
board.cache_hierarchy.ruby_system.RequestType.RMW_Read.hit_latency_hist_seqr::bucket_size            1                       (Unspecified)
board.cache_hierarchy.ruby_system.RequestType.RMW_Read.hit_latency_hist_seqr::max_bucket            9                       (Unspecified)
board.cache_hierarchy.ruby_system.RequestType.RMW_Read.hit_latency_hist_seqr::samples          108                       (Unspecified)
board.cache_hierarchy.ruby_system.RequestType.RMW_Read.hit_latency_hist_seqr::mean     1.083333                       (Unspecified)
board.cache_hierarchy.ruby_system.RequestType.RMW_Read.hit_latency_hist_seqr::gmean     1.059463                       (Unspecified)
board.cache_hierarchy.ruby_system.RequestType.RMW_Read.hit_latency_hist_seqr::stdev     0.277674                       (Unspecified)
board.cache_hierarchy.ruby_system.RequestType.RMW_Read.hit_latency_hist_seqr |           0      0.00%      0.00% |          99     91.67%     91.67% |           9      8.33%    100.00% |           0      0.00%    100.00% |           0      0.00%    100.00% |           0      0.00%    100.00% |           0      0.00%    100.00% |           0      0.00%    100.00% |           0      0.00%    100.00% |           0      0.00%    100.00% (Unspecified)
board.cache_hierarchy.ruby_system.RequestType.RMW_Read.hit_latency_hist_seqr::total          108                       (Unspecified)
board.cache_hierarchy.ruby_system.RequestType.RMW_Read.miss_latency_hist_seqr::bucket_size           32                       (Unspecified)
board.cache_hierarchy.ruby_system.RequestType.RMW_Read.miss_latency_hist_seqr::max_bucket          319                       (Unspecified)
board.cache_hierarchy.ruby_system.RequestType.RMW_Read.miss_latency_hist_seqr::samples            9                       (Unspecified)
board.cache_hierarchy.ruby_system.RequestType.RMW_Read.miss_latency_hist_seqr::mean   122.333333                       (Unspecified)
board.cache_hierarchy.ruby_system.RequestType.RMW_Read.miss_latency_hist_seqr::gmean   105.022562                       (Unspecified)
board.cache_hierarchy.ruby_system.RequestType.RMW_Read.miss_latency_hist_seqr::stdev    65.312709                       (Unspecified)
board.cache_hierarchy.ruby_system.RequestType.RMW_Read.miss_latency_hist_seqr |           0      0.00%      0.00% |           1     11.11%     11.11% |           4     44.44%     55.56% |           0      0.00%     55.56% |           0      0.00%     55.56% |           2     22.22%     77.78% |           2     22.22%    100.00% |           0      0.00%    100.00% |           0      0.00%    100.00% |           0      0.00%    100.00% (Unspecified)
board.cache_hierarchy.ruby_system.RequestType.RMW_Read.miss_latency_hist_seqr::total            9                       (Unspecified)
board.cache_hierarchy.ruby_system.RequestType.Locked_RMW_Read.latency_hist_seqr::bucket_size           32                       (Unspecified)
board.cache_hierarchy.ruby_system.RequestType.Locked_RMW_Read.latency_hist_seqr::max_bucket          319                       (Unspecified)
board.cache_hierarchy.ruby_system.RequestType.Locked_RMW_Read.latency_hist_seqr::samples        32959                       (Unspecified)
board.cache_hierarchy.ruby_system.RequestType.Locked_RMW_Read.latency_hist_seqr::mean   202.237356                       (Unspecified)
board.cache_hierarchy.ruby_system.RequestType.Locked_RMW_Read.latency_hist_seqr::gmean   190.716587                       (Unspecified)
board.cache_hierarchy.ruby_system.RequestType.Locked_RMW_Read.latency_hist_seqr::stdev    34.869450                       (Unspecified)
board.cache_hierarchy.ruby_system.RequestType.Locked_RMW_Read.latency_hist_seqr |         357      1.08%      1.08% |          25      0.08%      1.16% |         267      0.81%      1.97% |          69      0.21%      2.18% |        1793      5.44%      7.62% |        4969     15.08%     22.69% |       25479     77.31%    100.00% |           0      0.00%    100.00% |           0      0.00%    100.00% |           0      0.00%    100.00% (Unspecified)
board.cache_hierarchy.ruby_system.RequestType.Locked_RMW_Read.latency_hist_seqr::total        32959                       (Unspecified)
board.cache_hierarchy.ruby_system.RequestType.Locked_RMW_Read.hit_latency_hist_seqr::bucket_size            1                       (Unspecified)
board.cache_hierarchy.ruby_system.RequestType.Locked_RMW_Read.hit_latency_hist_seqr::max_bucket            9                       (Unspecified)
board.cache_hierarchy.ruby_system.RequestType.Locked_RMW_Read.hit_latency_hist_seqr::samples          355                       (Unspecified)
board.cache_hierarchy.ruby_system.RequestType.Locked_RMW_Read.hit_latency_hist_seqr::mean            1                       (Unspecified)
board.cache_hierarchy.ruby_system.RequestType.Locked_RMW_Read.hit_latency_hist_seqr::gmean            1                       (Unspecified)
board.cache_hierarchy.ruby_system.RequestType.Locked_RMW_Read.hit_latency_hist_seqr |           0      0.00%      0.00% |         355    100.00%    100.00% |           0      0.00%    100.00% |           0      0.00%    100.00% |           0      0.00%    100.00% |           0      0.00%    100.00% |           0      0.00%    100.00% |           0      0.00%    100.00% |           0      0.00%    100.00% |           0      0.00%    100.00% (Unspecified)
board.cache_hierarchy.ruby_system.RequestType.Locked_RMW_Read.hit_latency_hist_seqr::total          355                       (Unspecified)
board.cache_hierarchy.ruby_system.RequestType.Locked_RMW_Read.miss_latency_hist_seqr::bucket_size           32                       (Unspecified)
board.cache_hierarchy.ruby_system.RequestType.Locked_RMW_Read.miss_latency_hist_seqr::max_bucket          319                       (Unspecified)
board.cache_hierarchy.ruby_system.RequestType.Locked_RMW_Read.miss_latency_hist_seqr::samples        32604                       (Unspecified)
board.cache_hierarchy.ruby_system.RequestType.Locked_RMW_Read.miss_latency_hist_seqr::mean   204.428475                       (Unspecified)
board.cache_hierarchy.ruby_system.RequestType.Locked_RMW_Read.miss_latency_hist_seqr::gmean   201.937916                       (Unspecified)
board.cache_hierarchy.ruby_system.RequestType.Locked_RMW_Read.miss_latency_hist_seqr::stdev    27.988712                       (Unspecified)
board.cache_hierarchy.ruby_system.RequestType.Locked_RMW_Read.miss_latency_hist_seqr |           2      0.01%      0.01% |          25      0.08%      0.08% |         267      0.82%      0.90% |          69      0.21%      1.11% |        1793      5.50%      6.61% |        4969     15.24%     21.85% |       25479     78.15%    100.00% |           0      0.00%    100.00% |           0      0.00%    100.00% |           0      0.00%    100.00% (Unspecified)
board.cache_hierarchy.ruby_system.RequestType.Locked_RMW_Read.miss_latency_hist_seqr::total        32604                       (Unspecified)
board.cache_hierarchy.ruby_system.RequestType.Locked_RMW_Write.latency_hist_seqr::bucket_size            1                       (Unspecified)
board.cache_hierarchy.ruby_system.RequestType.Locked_RMW_Write.latency_hist_seqr::max_bucket            9                       (Unspecified)
board.cache_hierarchy.ruby_system.RequestType.Locked_RMW_Write.latency_hist_seqr::samples        32959                       (Unspecified)
board.cache_hierarchy.ruby_system.RequestType.Locked_RMW_Write.latency_hist_seqr::mean            1                       (Unspecified)
board.cache_hierarchy.ruby_system.RequestType.Locked_RMW_Write.latency_hist_seqr::gmean            1                       (Unspecified)
board.cache_hierarchy.ruby_system.RequestType.Locked_RMW_Write.latency_hist_seqr |           0      0.00%      0.00% |       32959    100.00%    100.00% |           0      0.00%    100.00% |           0      0.00%    100.00% |           0      0.00%    100.00% |           0      0.00%    100.00% |           0      0.00%    100.00% |           0      0.00%    100.00% |           0      0.00%    100.00% |           0      0.00%    100.00% (Unspecified)
board.cache_hierarchy.ruby_system.RequestType.Locked_RMW_Write.latency_hist_seqr::total        32959                       (Unspecified)
board.cache_hierarchy.ruby_system.RequestType.Locked_RMW_Write.hit_latency_hist_seqr::bucket_size            1                       (Unspecified)
board.cache_hierarchy.ruby_system.RequestType.Locked_RMW_Write.hit_latency_hist_seqr::max_bucket            9                       (Unspecified)
board.cache_hierarchy.ruby_system.RequestType.Locked_RMW_Write.hit_latency_hist_seqr::samples        32959                       (Unspecified)
board.cache_hierarchy.ruby_system.RequestType.Locked_RMW_Write.hit_latency_hist_seqr::mean            1                       (Unspecified)
board.cache_hierarchy.ruby_system.RequestType.Locked_RMW_Write.hit_latency_hist_seqr::gmean            1                       (Unspecified)
board.cache_hierarchy.ruby_system.RequestType.Locked_RMW_Write.hit_latency_hist_seqr |           0      0.00%      0.00% |       32959    100.00%    100.00% |           0      0.00%    100.00% |           0      0.00%    100.00% |           0      0.00%    100.00% |           0      0.00%    100.00% |           0      0.00%    100.00% |           0      0.00%    100.00% |           0      0.00%    100.00% |           0      0.00%    100.00% (Unspecified)
board.cache_hierarchy.ruby_system.RequestType.Locked_RMW_Write.hit_latency_hist_seqr::total        32959                       (Unspecified)
board.cache_hierarchy.ruby_system.directory_controllers.power_state.pwrStateResidencyTicks::UNDEFINED   1070713548                       # Cumulative time (in ticks) in various power states (Tick)
board.cache_hierarchy.ruby_system.directory_controllers.requestToDir.m_msg_count          622                       # Number of messages passed the buffer (Count)
board.cache_hierarchy.ruby_system.directory_controllers.requestToDir.m_buf_msgs     0.000254                       # Average number of messages in buffer ((Count/Tick))
board.cache_hierarchy.ruby_system.directory_controllers.requestToMemory.m_msg_count          622                       # Number of messages passed the buffer (Count)
board.cache_hierarchy.ruby_system.directory_controllers.requestToMemory.m_buf_msgs     0.000256                       # Average number of messages in buffer ((Count/Tick))
board.cache_hierarchy.ruby_system.directory_controllers.requestToMemory.m_stall_time          999                       # Total number of ticks messages were stalled in this buffer (Tick)
board.cache_hierarchy.ruby_system.directory_controllers.requestToMemory.m_avg_stall_time     1.606109                       # Average stall ticks per message ((Tick/Count))
board.cache_hierarchy.ruby_system.directory_controllers.responseFromDir.m_msg_count          622                       # Number of messages passed the buffer (Count)
board.cache_hierarchy.ruby_system.directory_controllers.responseFromDir.m_buf_msgs     0.000254                       # Average number of messages in buffer ((Count/Tick))
board.cache_hierarchy.ruby_system.directory_controllers.responseFromMemory.m_msg_count          622                       # Number of messages passed the buffer (Count)
board.cache_hierarchy.ruby_system.directory_controllers.responseFromMemory.m_buf_msgs     0.000378                       # Average number of messages in buffer ((Count/Tick))
board.cache_hierarchy.ruby_system.l1_controllers0.fullyBusyCycles           37                       # cycles for which number of transistions == max transitions (Unspecified)
board.cache_hierarchy.ruby_system.l1_controllers0.delayHistogram::samples         1065                       # delay_histogram (Unspecified)
board.cache_hierarchy.ruby_system.l1_controllers0.delayHistogram::mean     0.105164                       # delay_histogram (Unspecified)
board.cache_hierarchy.ruby_system.l1_controllers0.delayHistogram::stdev     0.801914                       # delay_histogram (Unspecified)
board.cache_hierarchy.ruby_system.l1_controllers0.delayHistogram::0         1043     97.93%     97.93% # delay_histogram (Unspecified)
board.cache_hierarchy.ruby_system.l1_controllers0.delayHistogram::2            6      0.56%     98.50% # delay_histogram (Unspecified)
board.cache_hierarchy.ruby_system.l1_controllers0.delayHistogram::4            5      0.47%     98.97% # delay_histogram (Unspecified)
board.cache_hierarchy.ruby_system.l1_controllers0.delayHistogram::6            4      0.38%     99.34% # delay_histogram (Unspecified)
board.cache_hierarchy.ruby_system.l1_controllers0.delayHistogram::8            7      0.66%    100.00% # delay_histogram (Unspecified)
board.cache_hierarchy.ruby_system.l1_controllers0.delayHistogram::total         1065                       # delay_histogram (Unspecified)
board.cache_hierarchy.ruby_system.l1_controllers0.L1Dcache.m_demand_hits         9349                       # Number of cache demand hits (Unspecified)
board.cache_hierarchy.ruby_system.l1_controllers0.L1Dcache.m_demand_misses          184                       # Number of cache demand misses (Unspecified)
board.cache_hierarchy.ruby_system.l1_controllers0.L1Dcache.m_demand_accesses         9533                       # Number of cache demand accesses (Unspecified)
board.cache_hierarchy.ruby_system.l1_controllers0.L1Icache.m_demand_hits         5757                       # Number of cache demand hits (Unspecified)
board.cache_hierarchy.ruby_system.l1_controllers0.L1Icache.m_demand_misses          306                       # Number of cache demand misses (Unspecified)
board.cache_hierarchy.ruby_system.l1_controllers0.L1Icache.m_demand_accesses         6063                       # Number of cache demand accesses (Unspecified)
board.cache_hierarchy.ruby_system.l1_controllers0.mandatoryQueue.m_msg_count        15596                       # Number of messages passed the buffer (Count)
board.cache_hierarchy.ruby_system.l1_controllers0.mandatoryQueue.m_buf_msgs     0.006379                       # Average number of messages in buffer ((Count/Tick))
board.cache_hierarchy.ruby_system.l1_controllers0.mandatoryQueue.m_stall_time         1332                       # Total number of ticks messages were stalled in this buffer (Tick)
board.cache_hierarchy.ruby_system.l1_controllers0.mandatoryQueue.m_avg_stall_time     0.085407                       # Average stall ticks per message ((Tick/Count))
board.cache_hierarchy.ruby_system.l1_controllers0.power_state.pwrStateResidencyTicks::UNDEFINED   1070713548                       # Cumulative time (in ticks) in various power states (Tick)
board.cache_hierarchy.ruby_system.l1_controllers0.prefetcher.RubyPrefetcher.numMissObserved            0                       # Number of misses observed (Unspecified)
board.cache_hierarchy.ruby_system.l1_controllers0.prefetcher.RubyPrefetcher.numAllocatedStreams            0                       # Number of streams allocated for prefetching (Unspecified)
board.cache_hierarchy.ruby_system.l1_controllers0.prefetcher.RubyPrefetcher.numPrefetchRequested            0                       # Number of prefetch requests made (Unspecified)
board.cache_hierarchy.ruby_system.l1_controllers0.prefetcher.RubyPrefetcher.numHits            0                       # Number of prefetched blocks accessed (for the first time) (Unspecified)
board.cache_hierarchy.ruby_system.l1_controllers0.prefetcher.RubyPrefetcher.numPartialHits            0                       # Number of misses observed for a block being prefetched (Unspecified)
board.cache_hierarchy.ruby_system.l1_controllers0.prefetcher.RubyPrefetcher.numPagesCrossed            0                       # Number of prefetches across pages (Unspecified)
board.cache_hierarchy.ruby_system.l1_controllers0.prefetcher.RubyPrefetcher.numMissedPrefetchedBlocks            0                       # Number of misses for blocks that were prefetched, yet missed (Unspecified)
board.cache_hierarchy.ruby_system.l1_controllers0.requestFromL1Cache.m_msg_count          645                       # Number of messages passed the buffer (Count)
board.cache_hierarchy.ruby_system.l1_controllers0.requestFromL1Cache.m_buf_msgs     0.000528                       # Average number of messages in buffer ((Count/Tick))
board.cache_hierarchy.ruby_system.l1_controllers0.requestToL1Cache.m_msg_count          415                       # Number of messages passed the buffer (Count)
board.cache_hierarchy.ruby_system.l1_controllers0.requestToL1Cache.m_buf_msgs     0.000170                       # Average number of messages in buffer ((Count/Tick))
board.cache_hierarchy.ruby_system.l1_controllers0.responseFromL1Cache.m_msg_count          794                       # Number of messages passed the buffer (Count)
board.cache_hierarchy.ruby_system.l1_controllers0.responseFromL1Cache.m_buf_msgs     0.000649                       # Average number of messages in buffer ((Count/Tick))
board.cache_hierarchy.ruby_system.l1_controllers0.responseToL1Cache.m_msg_count          650                       # Number of messages passed the buffer (Count)
board.cache_hierarchy.ruby_system.l1_controllers0.responseToL1Cache.m_buf_msgs     0.000266                       # Average number of messages in buffer ((Count/Tick))
board.cache_hierarchy.ruby_system.l1_controllers0.sequencer.power_state.pwrStateResidencyTicks::UNDEFINED   1070713548                       # Cumulative time (in ticks) in various power states (Tick)
board.cache_hierarchy.ruby_system.l1_controllers0.unblockFromL1Cache.m_msg_count          179                       # Number of messages passed the buffer (Count)
board.cache_hierarchy.ruby_system.l1_controllers0.unblockFromL1Cache.m_buf_msgs     0.000073                       # Average number of messages in buffer ((Count/Tick))
board.cache_hierarchy.ruby_system.l1_controllers1.fullyBusyCycles            1                       # cycles for which number of transistions == max transitions (Unspecified)
board.cache_hierarchy.ruby_system.l1_controllers1.delayHistogram::samples        20335                       # delay_histogram (Unspecified)
board.cache_hierarchy.ruby_system.l1_controllers1.delayHistogram::mean     0.004918                       # delay_histogram (Unspecified)
board.cache_hierarchy.ruby_system.l1_controllers1.delayHistogram::stdev     0.191219                       # delay_histogram (Unspecified)
board.cache_hierarchy.ruby_system.l1_controllers1.delayHistogram::0-1        20317     99.91%     99.91% # delay_histogram (Unspecified)
board.cache_hierarchy.ruby_system.l1_controllers1.delayHistogram::2-3            4      0.02%     99.93% # delay_histogram (Unspecified)
board.cache_hierarchy.ruby_system.l1_controllers1.delayHistogram::4-5            4      0.02%     99.95% # delay_histogram (Unspecified)
board.cache_hierarchy.ruby_system.l1_controllers1.delayHistogram::6-7            6      0.03%     99.98% # delay_histogram (Unspecified)
board.cache_hierarchy.ruby_system.l1_controllers1.delayHistogram::8-9            3      0.01%    100.00% # delay_histogram (Unspecified)
board.cache_hierarchy.ruby_system.l1_controllers1.delayHistogram::16-17            1      0.00%    100.00% # delay_histogram (Unspecified)
board.cache_hierarchy.ruby_system.l1_controllers1.delayHistogram::total        20335                       # delay_histogram (Unspecified)
board.cache_hierarchy.ruby_system.l1_controllers1.L1Dcache.m_demand_hits       113927                       # Number of cache demand hits (Unspecified)
board.cache_hierarchy.ruby_system.l1_controllers1.L1Dcache.m_demand_misses        10260                       # Number of cache demand misses (Unspecified)
board.cache_hierarchy.ruby_system.l1_controllers1.L1Dcache.m_demand_accesses       124187                       # Number of cache demand accesses (Unspecified)
board.cache_hierarchy.ruby_system.l1_controllers1.L1Icache.m_demand_hits       156192                       # Number of cache demand hits (Unspecified)
board.cache_hierarchy.ruby_system.l1_controllers1.L1Icache.m_demand_misses          188                       # Number of cache demand misses (Unspecified)
board.cache_hierarchy.ruby_system.l1_controllers1.L1Icache.m_demand_accesses       156380                       # Number of cache demand accesses (Unspecified)
board.cache_hierarchy.ruby_system.l1_controllers1.mandatoryQueue.m_msg_count       280567                       # Number of messages passed the buffer (Count)
board.cache_hierarchy.ruby_system.l1_controllers1.mandatoryQueue.m_buf_msgs     0.114732                       # Average number of messages in buffer ((Count/Tick))
board.cache_hierarchy.ruby_system.l1_controllers1.power_state.pwrStateResidencyTicks::UNDEFINED   1070713548                       # Cumulative time (in ticks) in various power states (Tick)
board.cache_hierarchy.ruby_system.l1_controllers1.prefetcher.RubyPrefetcher.numMissObserved            0                       # Number of misses observed (Unspecified)
board.cache_hierarchy.ruby_system.l1_controllers1.prefetcher.RubyPrefetcher.numAllocatedStreams            0                       # Number of streams allocated for prefetching (Unspecified)
board.cache_hierarchy.ruby_system.l1_controllers1.prefetcher.RubyPrefetcher.numPrefetchRequested            0                       # Number of prefetch requests made (Unspecified)
board.cache_hierarchy.ruby_system.l1_controllers1.prefetcher.RubyPrefetcher.numHits            0                       # Number of prefetched blocks accessed (for the first time) (Unspecified)
board.cache_hierarchy.ruby_system.l1_controllers1.prefetcher.RubyPrefetcher.numPartialHits            0                       # Number of misses observed for a block being prefetched (Unspecified)
board.cache_hierarchy.ruby_system.l1_controllers1.prefetcher.RubyPrefetcher.numPagesCrossed            0                       # Number of prefetches across pages (Unspecified)
board.cache_hierarchy.ruby_system.l1_controllers1.prefetcher.RubyPrefetcher.numMissedPrefetchedBlocks            0                       # Number of misses for blocks that were prefetched, yet missed (Unspecified)
board.cache_hierarchy.ruby_system.l1_controllers1.requestFromL1Cache.m_msg_count        10461                       # Number of messages passed the buffer (Count)
board.cache_hierarchy.ruby_system.l1_controllers1.requestFromL1Cache.m_buf_msgs     0.008556                       # Average number of messages in buffer ((Count/Tick))
board.cache_hierarchy.ruby_system.l1_controllers1.requestToL1Cache.m_msg_count         9862                       # Number of messages passed the buffer (Count)
board.cache_hierarchy.ruby_system.l1_controllers1.requestToL1Cache.m_buf_msgs     6.876422                       # Average number of messages in buffer ((Count/Tick))
board.cache_hierarchy.ruby_system.l1_controllers1.responseFromL1Cache.m_msg_count        11603                       # Number of messages passed the buffer (Count)
board.cache_hierarchy.ruby_system.l1_controllers1.responseFromL1Cache.m_buf_msgs     0.009490                       # Average number of messages in buffer ((Count/Tick))
board.cache_hierarchy.ruby_system.l1_controllers1.responseToL1Cache.m_msg_count        10473                       # Number of messages passed the buffer (Count)
board.cache_hierarchy.ruby_system.l1_controllers1.responseToL1Cache.m_buf_msgs     0.004283                       # Average number of messages in buffer ((Count/Tick))
board.cache_hierarchy.ruby_system.l1_controllers1.sequencer.power_state.pwrStateResidencyTicks::UNDEFINED   1070713548                       # Cumulative time (in ticks) in various power states (Tick)
board.cache_hierarchy.ruby_system.l1_controllers1.unblockFromL1Cache.m_msg_count        10258                       # Number of messages passed the buffer (Count)
board.cache_hierarchy.ruby_system.l1_controllers1.unblockFromL1Cache.m_buf_msgs     0.004195                       # Average number of messages in buffer ((Count/Tick))
board.cache_hierarchy.ruby_system.l1_controllers2.fullyBusyCycles            3                       # cycles for which number of transistions == max transitions (Unspecified)
board.cache_hierarchy.ruby_system.l1_controllers2.delayHistogram::samples        18766                       # delay_histogram (Unspecified)
board.cache_hierarchy.ruby_system.l1_controllers2.delayHistogram::mean     0.010764                       # delay_histogram (Unspecified)
board.cache_hierarchy.ruby_system.l1_controllers2.delayHistogram::stdev     0.301504                       # delay_histogram (Unspecified)
board.cache_hierarchy.ruby_system.l1_controllers2.delayHistogram::0-1        18731     99.81%     99.81% # delay_histogram (Unspecified)
board.cache_hierarchy.ruby_system.l1_controllers2.delayHistogram::2-3           10      0.05%     99.87% # delay_histogram (Unspecified)
board.cache_hierarchy.ruby_system.l1_controllers2.delayHistogram::4-5            8      0.04%     99.91% # delay_histogram (Unspecified)
board.cache_hierarchy.ruby_system.l1_controllers2.delayHistogram::6-7            8      0.04%     99.95% # delay_histogram (Unspecified)
board.cache_hierarchy.ruby_system.l1_controllers2.delayHistogram::8-9            3      0.02%     99.97% # delay_histogram (Unspecified)
board.cache_hierarchy.ruby_system.l1_controllers2.delayHistogram::10-11            2      0.01%     99.98% # delay_histogram (Unspecified)
board.cache_hierarchy.ruby_system.l1_controllers2.delayHistogram::12-13            1      0.01%     99.98% # delay_histogram (Unspecified)
board.cache_hierarchy.ruby_system.l1_controllers2.delayHistogram::14-15            2      0.01%     99.99% # delay_histogram (Unspecified)
board.cache_hierarchy.ruby_system.l1_controllers2.delayHistogram::18-19            1      0.01%    100.00% # delay_histogram (Unspecified)
board.cache_hierarchy.ruby_system.l1_controllers2.delayHistogram::total        18766                       # delay_histogram (Unspecified)
board.cache_hierarchy.ruby_system.l1_controllers2.L1Dcache.m_demand_hits       113808                       # Number of cache demand hits (Unspecified)
board.cache_hierarchy.ruby_system.l1_controllers2.L1Dcache.m_demand_misses        10338                       # Number of cache demand misses (Unspecified)
board.cache_hierarchy.ruby_system.l1_controllers2.L1Dcache.m_demand_accesses       124146                       # Number of cache demand accesses (Unspecified)
board.cache_hierarchy.ruby_system.l1_controllers2.L1Icache.m_demand_hits       156286                       # Number of cache demand hits (Unspecified)
board.cache_hierarchy.ruby_system.l1_controllers2.L1Icache.m_demand_misses          191                       # Number of cache demand misses (Unspecified)
board.cache_hierarchy.ruby_system.l1_controllers2.L1Icache.m_demand_accesses       156477                       # Number of cache demand accesses (Unspecified)
[...]
board.processor.cores4.core.executeStats0.instRate     0.312403                       # Inst execution rate ((Count/Cycle))
board.processor.cores4.core.executeStats0.numCCRegReads        84064                       # Number of times the CC registers were read (Count)
board.processor.cores4.core.executeStats0.numCCRegWrites       148847                       # Number of times the CC registers were written (Count)
board.processor.cores4.core.executeStats0.numFpRegReads           27                       # Number of times the floating registers were read (Count)
board.processor.cores4.core.executeStats0.numFpRegWrites           14                       # Number of times the floating registers were written (Count)
board.processor.cores4.core.executeStats0.numIntRegReads       816923                       # Number of times the integer registers were read (Count)
board.processor.cores4.core.executeStats0.numIntRegWrites       569364                       # Number of times the integer registers were written (Count)
board.processor.cores4.core.executeStats0.numMemRefs       247110                       # Number of memory refs (Count)
board.processor.cores4.core.executeStats0.numMiscRegReads       346691                       # Number of times the Misc registers were read (Count)
board.processor.cores4.core.executeStats0.numMiscRegWrites            1                       # Number of times the Misc registers were written (Count)
board.processor.cores4.core.executeStats0.numVecAluAccesses            0                       # Number of vector alu accesses (Count)
board.processor.cores4.core.executeStats0.numDiscardedOps            0                       # Number of ops (including micro ops) which were discarded before commit (Count)
board.processor.cores4.core.fetch.predictedBranches        90660                       # Number of branches that fetch has predicted taken (Count)
board.processor.cores4.core.fetch.cycles      2208325                       # Number of cycles fetch has run and was not squashing or blocked (Cycle)
board.processor.cores4.core.fetch.squashCycles        16842                       # Number of cycles fetch has spent squashing (Cycle)
board.processor.cores4.core.fetch.miscStallCycles           12                       # Number of cycles fetch has spent waiting on interrupts, or bad addresses, or out of MSHRs (Cycle)
board.processor.cores4.core.fetch.pendingTrapStallCycles           96                       # Number of stall cycles due to pending traps (Cycle)
board.processor.cores4.core.fetch.icacheWaitRetryStallCycles            6                       # Number of stall cycles due to full MSHR (Cycle)
board.processor.cores4.core.fetch.cacheLines       156445                       # Number of cache lines fetched (Count)
board.processor.cores4.core.fetch.icacheSquashes         8290                       # Number of outstanding Icache misses that were squashed (Count)
board.processor.cores4.core.fetch.nisnDist::samples      2377239                       # Number of instructions fetched each cycle (Total) (Count)
board.processor.cores4.core.fetch.nisnDist::mean     0.613771                       # Number of instructions fetched each cycle (Total) (Count)
board.processor.cores4.core.fetch.nisnDist::stdev     1.954104                       # Number of instructions fetched each cycle (Total) (Count)
board.processor.cores4.core.fetch.nisnDist::underflows            0      0.00%      0.00% # Number of instructions fetched each cycle (Total) (Count)
board.processor.cores4.core.fetch.nisnDist::0      2123930     89.34%     89.34% # Number of instructions fetched each cycle (Total) (Count)
board.processor.cores4.core.fetch.nisnDist::1        14393      0.61%     89.95% # Number of instructions fetched each cycle (Total) (Count)
board.processor.cores4.core.fetch.nisnDist::2        43047      1.81%     91.76% # Number of instructions fetched each cycle (Total) (Count)
board.processor.cores4.core.fetch.nisnDist::3         2114      0.09%     91.85% # Number of instructions fetched each cycle (Total) (Count)
board.processor.cores4.core.fetch.nisnDist::4        20573      0.87%     92.71% # Number of instructions fetched each cycle (Total) (Count)
board.processor.cores4.core.fetch.nisnDist::5         4240      0.18%     92.89% # Number of instructions fetched each cycle (Total) (Count)
board.processor.cores4.core.fetch.nisnDist::6        30833      1.30%     94.19% # Number of instructions fetched each cycle (Total) (Count)
board.processor.cores4.core.fetch.nisnDist::7        41111      1.73%     95.92% # Number of instructions fetched each cycle (Total) (Count)
board.processor.cores4.core.fetch.nisnDist::8        96998      4.08%    100.00% # Number of instructions fetched each cycle (Total) (Count)
board.processor.cores4.core.fetch.nisnDist::overflows            0      0.00%    100.00% # Number of instructions fetched each cycle (Total) (Count)
board.processor.cores4.core.fetch.nisnDist::min_value            0                       # Number of instructions fetched each cycle (Total) (Count)
board.processor.cores4.core.fetch.nisnDist::max_value            8                       # Number of instructions fetched each cycle (Total) (Count)
board.processor.cores4.core.fetch.nisnDist::total      2377239                       # Number of instructions fetched each cycle (Total) (Count)
board.processor.cores4.core.fetchStats0.numInsts       979323                       # Number of instructions fetched (thread level) (Count)
board.processor.cores4.core.fetchStats0.numOps            0                       # Number of ops (including micro ops) fetched (thread level) (Count)
board.processor.cores4.core.fetchStats0.fetchRate     0.411622                       # Number of inst fetches per cycle ((Count/Cycle))
board.processor.cores4.core.fetchStats0.numBranches        91163                       # Number of branches fetched (Count)
board.processor.cores4.core.fetchStats0.branchRate     0.038317                       # Number of branch fetches per cycle (Ratio)
board.processor.cores4.core.fetchStats0.icacheStallCycles       160379                       # ICache total stall cycles (Cycle)
board.processor.cores4.core.fetchStats0.numFetchSuspends            0                       # Number of times Execute suspended instruction fetching (Count)
board.processor.cores4.core.iew.idleCycles            0                       # Number of cycles IEW is idle (Cycle)
board.processor.cores4.core.iew.squashCycles         8304                       # Number of cycles IEW is squashing (Cycle)
board.processor.cores4.core.iew.blockCycles      1946032                       # Number of cycles IEW is blocking (Cycle)
board.processor.cores4.core.iew.unblockCycles        16474                       # Number of cycles IEW is unblocking (Cycle)
board.processor.cores4.core.iew.dispatchedInsts      1100608                       # Number of instructions dispatched to IQ (Count)
board.processor.cores4.core.iew.dispSquashedInsts           16                       # Number of squashed instructions skipped by dispatch (Count)
board.processor.cores4.core.iew.dispLoadInsts       299986                       # Number of dispatched load instructions (Count)
board.processor.cores4.core.iew.dispStoreInsts       131732                       # Number of dispatched store instructions (Count)
board.processor.cores4.core.iew.dispNonSpecInsts        16412                       # Number of dispatched non-speculative instructions (Count)
board.processor.cores4.core.iew.iqFullEvents        14348                       # Number of times the IQ has become full, causing a stall (Count)
board.processor.cores4.core.iew.lsqFullEvents           76                       # Number of times the LSQ has become full, causing a stall (Count)
board.processor.cores4.core.iew.memOrderViolationEvents         8199                       # Number of memory order violations (Count)
board.processor.cores4.core.iew.predictedTakenIncorrect            8                       # Number of branches that were predicted taken incorrectly (Count)
board.processor.cores4.core.iew.predictedNotTakenIncorrect           99                       # Number of branches that were predicted not taken incorrectly (Count)
board.processor.cores4.core.iew.branchMispredicts          107                       # Number of branch mispredicts detected at execute (Count)
board.processor.cores4.core.iew.instsToCommit       743230                       # Cumulative count of insts sent to commit (Count)
board.processor.cores4.core.iew.writebackCount       743127                       # Cumulative count of insts written-back (Count)
board.processor.cores4.core.iew.producerInst       542313                       # Number of instructions producing a value (Count)
board.processor.cores4.core.iew.consumerInst       797965                       # Number of instructions consuming a value (Count)
board.processor.cores4.core.iew.wbRate       0.312346                       # Insts written-back per cycle ((Count/Cycle))
board.processor.cores4.core.iew.wbFanout     0.679620                       # Average fanout of values written-back ((Count/Count))
board.processor.cores4.core.interrupts.clk_domain.clock         5328                       # Clock period in ticks (Tick)
board.processor.cores4.core.lsq0.forwLoads        16573                       # Number of loads that had data forwarded from stores (Count)
board.processor.cores4.core.lsq0.squashedLoads       184732                       # Number of loads squashed (Count)
board.processor.cores4.core.lsq0.ignoredResponses            0                       # Number of memory responses ignored because the instruction is squashed (Count)
board.processor.cores4.core.lsq0.memOrderViolation         8199                       # Number of memory ordering violations (Count)
board.processor.cores4.core.lsq0.squashedStores        82140                       # Number of stores squashed (Count)
board.processor.cores4.core.lsq0.rescheduledLoads            0                       # Number of loads that were rescheduled (Count)
board.processor.cores4.core.lsq0.blockedByCache            2                       # Number of times an access to memory failed due to the cache being blocked (Count)
board.processor.cores4.core.lsq0.loadToUse::samples       115254                       # Distribution of cycle latency between the first time a load is issued and its completion (Unspecified)
board.processor.cores4.core.lsq0.loadToUse::mean    18.262299                       # Distribution of cycle latency between the first time a load is issued and its completion (Unspecified)
board.processor.cores4.core.lsq0.loadToUse::stdev    53.230619                       # Distribution of cycle latency between the first time a load is issued and its completion (Unspecified)
board.processor.cores4.core.lsq0.loadToUse::0-9       105007     91.11%     91.11% # Distribution of cycle latency between the first time a load is issued and its completion (Unspecified)
board.processor.cores4.core.lsq0.loadToUse::10-19          519      0.45%     91.56% # Distribution of cycle latency between the first time a load is issued and its completion (Unspecified)
board.processor.cores4.core.lsq0.loadToUse::20-29            3      0.00%     91.56% # Distribution of cycle latency between the first time a load is issued and its completion (Unspecified)
board.processor.cores4.core.lsq0.loadToUse::40-49            3      0.00%     91.56% # Distribution of cycle latency between the first time a load is issued and its completion (Unspecified)
board.processor.cores4.core.lsq0.loadToUse::50-59         1537      1.33%     92.90% # Distribution of cycle latency between the first time a load is issued and its completion (Unspecified)
board.processor.cores4.core.lsq0.loadToUse::60-69           43      0.04%     92.94% # Distribution of cycle latency between the first time a load is issued and its completion (Unspecified)
board.processor.cores4.core.lsq0.loadToUse::80-89           39      0.03%     92.97% # Distribution of cycle latency between the first time a load is issued and its completion (Unspecified)
board.processor.cores4.core.lsq0.loadToUse::90-99           26      0.02%     92.99% # Distribution of cycle latency between the first time a load is issued and its completion (Unspecified)
board.processor.cores4.core.lsq0.loadToUse::100-109            1      0.00%     92.99% # Distribution of cycle latency between the first time a load is issued and its completion (Unspecified)
board.processor.cores4.core.lsq0.loadToUse::120-129           15      0.01%     93.01% # Distribution of cycle latency between the first time a load is issued and its completion (Unspecified)
board.processor.cores4.core.lsq0.loadToUse::140-149            1      0.00%     93.01% # Distribution of cycle latency between the first time a load is issued and its completion (Unspecified)
board.processor.cores4.core.lsq0.loadToUse::150-159           11      0.01%     93.02% # Distribution of cycle latency between the first time a load is issued and its completion (Unspecified)
board.processor.cores4.core.lsq0.loadToUse::160-169         1493      1.30%     94.31% # Distribution of cycle latency between the first time a load is issued and its completion (Unspecified)
board.processor.cores4.core.lsq0.loadToUse::180-189           56      0.05%     94.36% # Distribution of cycle latency between the first time a load is issued and its completion (Unspecified)
board.processor.cores4.core.lsq0.loadToUse::200-209          501      0.43%     94.79% # Distribution of cycle latency between the first time a load is issued and its completion (Unspecified)
board.processor.cores4.core.lsq0.loadToUse::210-219            2      0.00%     94.80% # Distribution of cycle latency between the first time a load is issued and its completion (Unspecified)
board.processor.cores4.core.lsq0.loadToUse::220-229         5996      5.20%    100.00% # Distribution of cycle latency between the first time a load is issued and its completion (Unspecified)
board.processor.cores4.core.lsq0.loadToUse::240-249            1      0.00%    100.00% # Distribution of cycle latency between the first time a load is issued and its completion (Unspecified)
board.processor.cores4.core.lsq0.loadToUse::min_value            2                       # Distribution of cycle latency between the first time a load is issued and its completion (Unspecified)
board.processor.cores4.core.lsq0.loadToUse::max_value          245                       # Distribution of cycle latency between the first time a load is issued and its completion (Unspecified)
board.processor.cores4.core.lsq0.loadToUse::total       115254                       # Distribution of cycle latency between the first time a load is issued and its completion (Unspecified)
board.processor.cores4.core.mmu.dtb.rdAccesses       181000                       # TLB accesses on read requests (Count)
board.processor.cores4.core.mmu.dtb.wrAccesses        66103                       # TLB accesses on write requests (Count)
board.processor.cores4.core.mmu.dtb.rdMisses           75                       # TLB misses on read requests (Count)
board.processor.cores4.core.mmu.dtb.wrMisses            9                       # TLB misses on write requests (Count)
board.processor.cores4.core.mmu.dtb.walker.power_state.pwrStateResidencyTicks::UNDEFINED   1070713548                       # Cumulative time (in ticks) in various power states (Tick)
board.processor.cores4.core.mmu.itb.rdAccesses            0                       # TLB accesses on read requests (Count)
board.processor.cores4.core.mmu.itb.wrAccesses       156460                       # TLB accesses on write requests (Count)
board.processor.cores4.core.mmu.itb.rdMisses            0                       # TLB misses on read requests (Count)
board.processor.cores4.core.mmu.itb.wrMisses           50                       # TLB misses on write requests (Count)
board.processor.cores4.core.mmu.itb.walker.power_state.pwrStateResidencyTicks::UNDEFINED   1070713548                       # Cumulative time (in ticks) in various power states (Tick)
board.processor.cores4.core.power_state.pwrStateResidencyTicks::ON   1070713548                       # Cumulative time (in ticks) in various power states (Tick)
board.processor.cores4.core.rename.squashCycles         8304                       # Number of cycles rename is squashing (Cycle)
board.processor.cores4.core.rename.idleCycles       111197                       # Number of cycles rename is idle (Cycle)
board.processor.cores4.core.rename.blockCycles      2022182                       # Number of cycles rename is blocking (Cycle)
board.processor.cores4.core.rename.serializeStallCycles            0                       # count of cycles rename stalled for serializing inst (Cycle)
board.processor.cores4.core.rename.runCycles       166992                       # Number of cycles rename is running (Cycle)
board.processor.cores4.core.rename.unblockCycles        68564                       # Number of cycles rename is unblocking (Cycle)
board.processor.cores4.core.rename.renamedInsts      1215668                       # Number of instructions processed by rename (Count)
board.processor.cores4.core.rename.ROBFullEvents            7                       # Number of times rename has blocked due to ROB full (Count)
board.processor.cores4.core.rename.IQFullEvents        65607                       # Number of times rename has blocked due to IQ full (Count)
board.processor.cores4.core.rename.LQFullEvents           68                       # Number of times rename has blocked due to LQ full (Count)
board.processor.cores4.core.rename.SQFullEvents          815                       # Number of times rename has blocked due to SQ full (Count)
board.processor.cores4.core.rename.renamedOperands      1620037                       # Number of destination operands rename has renamed (Count)
board.processor.cores4.core.rename.lookups      3681643                       # Number of register rename lookups that rename has made (Count)
board.processor.cores4.core.rename.intLookups      1418747                       # Number of integer rename lookups (Count)
board.processor.cores4.core.rename.fpLookups           27                       # Number of floating rename lookups (Count)
board.processor.cores4.core.rename.committedMaps       571083                       # Number of HB maps that are committed (Count)
board.processor.cores4.core.rename.undoneMaps      1048954                       # Number of HB maps that are undone due to squashing (Count)
board.processor.cores4.core.rename.serializing            0                       # count of serializing insts renamed (Count)
board.processor.cores4.core.rename.tempSerializing            0                       # count of temporary serializing insts renamed (Count)
board.processor.cores4.core.rename.skidInsts       182718                       # count of insts added to the skid buffer (Count)
board.processor.cores4.core.rob.reads         3378728                       # The number of ROB reads (Count)
board.processor.cores4.core.rob.writes        2291378                       # The number of ROB writes (Count)
board.processor.cores4.core.thread_0.numInsts       280472                       # Number of Instructions committed (Count)
board.processor.cores4.core.thread_0.numOps       421919                       # Number of Ops committed (Count)
board.processor.cores4.core.thread_0.numMemRefs            0                       # Number of Memory References (Count)
board.workload.inst.arm                             0                       # number of arm instructions executed (Count)
board.workload.inst.quiesce                         0                       # number of quiesce instructions executed (Count)

---------- End Simulation Statistics   ----------
