Global frequency set at 1000000000000 ticks per second
gem5 Simulator System.  https://www.gem5.org
gem5 is copyrighted software; use the --copyright option for details.

gem5 version 24.0.0.0
gem5 compiled Dec 12 2024 20:18:25
gem5 started Dec 12 2024 20:27:43
gem5 executing on codespaces-36f82b, pid 76713
command line: ../../gem5/build/X86/gem5.opt --debug-flags=SecureMemoryDebugFlag main.py

  10656: global: CpuSidePort::recvTimingReq: Received read request without data for addr 17536
  10656: global: SecureMemory::handleRequest: Received read request without data for addr 17536
  10656: global: MetadataCacheRequestPort::sendPacket: Received read request without data for addr 17536
  10656: global: MetadataCacheRequestPort::sendPacket: Received read request without data for addr 2147485824
  10656: global: MetadataCacheRequestPort::sendPacket: Received read request without data for addr 2415919360
  10656: global: MetadataCacheRequestPort::sendPacket: Received read request without data for addr 2449473536
  10656: global: MetadataCacheRequestPort::sendPacket: Received read request without data for addr 2453667840
  10656: global: MetadataCacheRequestPort::sendPacket: Received read request without data for addr 2454192128
  10656: global: MetadataCacheRequestPort::sendPacket: Received read request without data for addr 2454257664
  10656: global: MetadataCacheRequestPort::sendPacket: Received read request without data for addr 2454265856
  10656: global: MetadataCacheRequestPort::sendPacket: Received read request without data for addr 2454266880
  10656: global: MetadataCacheRequestPort::sendPacket: Received read request without data for addr 2454267008
  10656: global: MetadataCacheRequestPort::sendPacket: Received read request without data for addr 2454267024
  10656: global: MetadataCacheRequestPort::sendPacket: Received read request without data for addr 2454267026


  10989: global: MetadataCacheResponsePort::recvTimingReq: Received read request without data for addr 17536
  10989: global: MemSidePort::sendPacket: Received read request without data for addr 17536
  10990: global: MetadataCacheResponsePort::recvTimingReq: Received read request without data for addr 2147485824
  10990: global: MemSidePort::sendPacket: Received read request without data for addr 2147485824
  10991: global: MetadataCacheResponsePort::recvTimingReq: Received read request without data for addr 2415919360
  10991: global: MemSidePort::sendPacket: Received read request without data for addr 2415919360
  10992: global: MetadataCacheResponsePort::recvTimingReq: Received read request without data for addr 2449473536
  10992: global: MemSidePort::sendPacket: Received read request without data for addr 2449473536
  10993: global: MetadataCacheResponsePort::recvTimingReq: Received read request without data for addr 2453667840
  10993: global: MemSidePort::sendPacket: Received read request without data for addr 2453667840
  10994: global: MetadataCacheResponsePort::recvTimingReq: Received read request without data for addr 2454192128
  10994: global: MemSidePort::sendPacket: Received read request without data for addr 2454192128
  10995: global: MetadataCacheResponsePort::recvTimingReq: Received read request without data for addr 2454257664
  10995: global: MemSidePort::sendPacket: Received read request without data for addr 2454257664
  10996: global: MetadataCacheResponsePort::recvTimingReq: Received read request without data for addr 2454265856
  10996: global: MemSidePort::sendPacket: Received read request without data for addr 2454265856
  10997: global: MetadataCacheResponsePort::recvTimingReq: Received read request without data for addr 2454266880
  10997: global: MemSidePort::sendPacket: Received read request without data for addr 2454266880
  10998: global: MetadataCacheResponsePort::recvTimingReq: Received read request without data for addr 2454267008
  10998: global: MemSidePort::sendPacket: Received read request without data for addr 2454267008


  70573: global: MemSidePort::recvReqRetry: Received read request without data for addr 2147485824
 130157: global: MemSidePort::recvReqRetry: Received read request without data for addr 2415919360

 160989: global: MemSidePort::recvTimingResp: Received read response with data for addr 17536
 160989: global: SecureMemory::handleResponse: Received read response with data for addr 17536
 160989: global: SecureMemory::handleResponse::3: Received read response with data for addr 17536

 189741: global: MemSidePort::recvReqRetry: Received read request without data for addr 2449473536

 220573: global: MemSidePort::recvTimingResp: Received read response with data for addr 2147485824
 220573: global: SecureMemory::handleResponse: Received read response with data for addr 2147485824
 220573: global: SecureMemory::handleResponse::2: Received read response with data for addr 2147485824

 249325: global: MemSidePort::recvReqRetry: Received read request without data for addr 2453667840

 280157: global: MemSidePort::recvTimingResp: Received read response with data for addr 2415919360
 280157: global: SecureMemory::handleResponse: Received read response with data for addr 2415919360
 280157: global: SecureMemory::handleResponse::3: Received read response with data for addr 2415919360

 308909: global: MemSidePort::recvReqRetry: Received read request without data for addr 2454192128

 339741: global: MemSidePort::recvTimingResp: Received read response with data for addr 2449473536
 339741: global: SecureMemory::handleResponse: Received read response with data for addr 2449473536
 339741: global: SecureMemory::handleResponse::3: Received read response with data for addr 2449473536

 368493: global: MemSidePort::recvReqRetry: Received read request without data for addr 2454257664

 399325: global: MemSidePort::recvTimingResp: Received read response with data for addr 2453667840
 399325: global: SecureMemory::handleResponse: Received read response with data for addr 2453667840
 399325: global: SecureMemory::handleResponse::3: Received read response with data for addr 2453667840

 428077: global: MemSidePort::recvReqRetry: Received read request without data for addr 2454265856

 458909: global: MemSidePort::recvTimingResp: Received read response with data for addr 2454192128
 458909: global: SecureMemory::handleResponse: Received read response with data for addr 2454192128
 458909: global: SecureMemory::handleResponse::3: Received read response with data for addr 2454192128

 487661: global: MemSidePort::recvReqRetry: Received read request without data for addr 2454266880

 518493: global: MemSidePort::recvTimingResp: Received read response with data for addr 2454257664
 518493: global: SecureMemory::handleResponse: Received read response with data for addr 2454257664
 518493: global: SecureMemory::handleResponse::3: Received read response with data for addr 2454257664

 547245: global: MemSidePort::recvReqRetry: Received read request without data for addr 2454267008

 578077: global: MemSidePort::recvTimingResp: Received read response with data for addr 2454265856
 578077: global: SecureMemory::handleResponse: Received read response with data for addr 2454265856
 578077: global: SecureMemory::handleResponse::3: Received read response with data for addr 2454265856

 637661: global: MemSidePort::recvTimingResp: Received read response with data for addr 2454266880
 637661: global: SecureMemory::handleResponse: Received read response with data for addr 2454266880
 637661: global: SecureMemory::handleResponse::3: Received read response with data for addr 2454266880

 697245: global: MemSidePort::recvTimingResp: Received read response with data for addr 2454267008
 697245: global: SecureMemory::handleResponse: Received read response with data for addr 2454267008
 697245: global: SecureMemory::handleResponse::3: Received read response with data for addr 2454267008

166500000: global: Sequencer::wakeup: Received read request without data for addr 17536
166500000: global: Sequencer::wakeup::deadlock: Received read request without data for addr 17536
